/*---------------------------------------------------------------------------*\
| =========                 |                                                 |
| \\      /  F ield         | OpenFOAM: The Open Source CFD Toolbox           |
|  \\    /   O peration     | Version:  2.3.0                                 |
|   \\  /    A nd           | Web:      www.OpenFOAM.org                      |
|    \\/     M anipulation  |                                                 |
\*---------------------------------------------------------------------------*/
Build  : 2.3.0-f5222ca19ce6
Exec   : icoFoam
Date   : May 01 2016
Time   : 23:45:35
Host   : "cagri-PC"
PID    : 8498
Case   : /home/cagri/Desktop/Blasius/Blasius_vFinal/Blasius_final_case/Upper_outlet/linear
nProcs : 1
sigFpe : Enabling floating point exception trapping (FOAM_SIGFPE).
fileModificationChecking : Monitoring run-time modified files using timeStampMaster
allowSystemOperations : Disallowing user-supplied system call operations

// * * * * * * * * * * * * * * * * * * * * * * * * * * * * * * * * * * * * * //
Create time

Create mesh for time = 0

Reading transportProperties

Reading field p

Reading field U

Reading/calculating face flux field phi


Starting time loop

Time = 0.001

Courant Number mean: 0.384615 max: 0.57731
smoothSolver:  Solving for Ux, Initial residual = 1, Final residual = 1.62835e-06, No Iterations 5
smoothSolver:  Solving for Uy, Initial residual = 0, Final residual = 0, No Iterations 0
DICPCG:  Solving for p, Initial residual = 1, Final residual = 8.6458e-07, No Iterations 86
time step continuity errors : sum local = 3.41171e-12, global = 1.0442e-13, cumulative = 1.0442e-13
DICPCG:  Solving for p, Initial residual = 0.0118329, Final residual = 8.96337e-07, No Iterations 72
time step continuity errors : sum local = 1.18135e-10, global = -2.94357e-12, cumulative = -2.83915e-12
ExecutionTime = 0.08 s  ClockTime = 0 s

Time = 0.002

Courant Number mean: 0.384377 max: 0.587436
smoothSolver:  Solving for Ux, Initial residual = 0.151906, Final residual = 1.766e-06, No Iterations 3
smoothSolver:  Solving for Uy, Initial residual = 0.305544, Final residual = 7.35762e-06, No Iterations 3
DICPCG:  Solving for p, Initial residual = 0.0201854, Final residual = 9.22458e-07, No Iterations 71
time step continuity errors : sum local = 7.60677e-11, global = -1.04236e-12, cumulative = -3.88151e-12
DICPCG:  Solving for p, Initial residual = 0.00239661, Final residual = 8.68538e-07, No Iterations 64
time step continuity errors : sum local = 9.17495e-11, global = -6.64368e-13, cumulative = -4.54588e-12
ExecutionTime = 0.1 s  ClockTime = 0 s

Time = 0.003

Courant Number mean: 0.38417 max: 0.597347
smoothSolver:  Solving for Ux, Initial residual = 0.0814984, Final residual = 8.29984e-07, No Iterations 3
smoothSolver:  Solving for Uy, Initial residual = 0.196113, Final residual = 4.59655e-06, No Iterations 3
DICPCG:  Solving for p, Initial residual = 0.00939122, Final residual = 8.65099e-07, No Iterations 74
time step continuity errors : sum local = 9.02111e-11, global = 4.55186e-13, cumulative = -4.09069e-12
DICPCG:  Solving for p, Initial residual = 0.00152251, Final residual = 9.38522e-07, No Iterations 59
time step continuity errors : sum local = 8.42709e-11, global = -8.40335e-12, cumulative = -1.2494e-11
ExecutionTime = 0.13 s  ClockTime = 0 s

Time = 0.004

Courant Number mean: 0.383975 max: 0.605067
smoothSolver:  Solving for Ux, Initial residual = 0.0536149, Final residual = 4.71618e-07, No Iterations 3
smoothSolver:  Solving for Uy, Initial residual = 0.122627, Final residual = 3.27885e-06, No Iterations 3
DICPCG:  Solving for p, Initial residual = 0.0112243, Final residual = 8.53876e-07, No Iterations 73
time step continuity errors : sum local = 7.7287e-11, global = -1.78147e-12, cumulative = -1.42755e-11
DICPCG:  Solving for p, Initial residual = 0.00225525, Final residual = 7.80016e-07, No Iterations 61
time step continuity errors : sum local = 5.6304e-11, global = -6.0485e-12, cumulative = -2.0324e-11
ExecutionTime = 0.15 s  ClockTime = 0 s

Time = 0.005

Courant Number mean: 0.38378 max: 0.609777
smoothSolver:  Solving for Ux, Initial residual = 0.0388812, Final residual = 2.90031e-07, No Iterations 3
smoothSolver:  Solving for Uy, Initial residual = 0.079533, Final residual = 2.63334e-06, No Iterations 3
DICPCG:  Solving for p, Initial residual = 0.011989, Final residual = 9.43181e-07, No Iterations 70
time step continuity errors : sum local = 6.9192e-11, global = 2.22783e-12, cumulative = -1.80962e-11
DICPCG:  Solving for p, Initial residual = 0.00180712, Final residual = 9.85447e-07, No Iterations 54
time step continuity errors : sum local = 6.87753e-11, global = -1.25002e-12, cumulative = -1.93462e-11
ExecutionTime = 0.17 s  ClockTime = 0 s

Time = 0.006

Courant Number mean: 0.383593 max: 0.611945
smoothSolver:  Solving for Ux, Initial residual = 0.0303612, Final residual = 7.40386e-06, No Iterations 2
smoothSolver:  Solving for Uy, Initial residual = 0.0625918, Final residual = 2.22654e-06, No Iterations 3
DICPCG:  Solving for p, Initial residual = 0.0125952, Final residual = 9.90668e-07, No Iterations 62
time step continuity errors : sum local = 6.97023e-11, global = -8.59808e-13, cumulative = -2.0206e-11
DICPCG:  Solving for p, Initial residual = 0.00185142, Final residual = 9.8773e-07, No Iterations 50
time step continuity errors : sum local = 6.92199e-11, global = -4.47374e-12, cumulative = -2.46798e-11
ExecutionTime = 0.2 s  ClockTime = 0 s

Time = 0.007

Courant Number mean: 0.383418 max: 0.612456
smoothSolver:  Solving for Ux, Initial residual = 0.0247955, Final residual = 5.71874e-06, No Iterations 2
smoothSolver:  Solving for Uy, Initial residual = 0.0534406, Final residual = 1.85998e-06, No Iterations 3
DICPCG:  Solving for p, Initial residual = 0.0151567, Final residual = 7.16293e-07, No Iterations 71
time step continuity errors : sum local = 5.04682e-11, global = 1.31077e-12, cumulative = -2.3369e-11
DICPCG:  Solving for p, Initial residual = 0.00234868, Final residual = 9.13719e-07, No Iterations 55
time step continuity errors : sum local = 6.04633e-11, global = -1.64597e-12, cumulative = -2.50149e-11
ExecutionTime = 0.23 s  ClockTime = 0 s

Time = 0.008

Courant Number mean: 0.383252 max: 0.616075
smoothSolver:  Solving for Ux, Initial residual = 0.0207444, Final residual = 4.57307e-06, No Iterations 2
smoothSolver:  Solving for Uy, Initial residual = 0.0447085, Final residual = 1.49619e-06, No Iterations 3
DICPCG:  Solving for p, Initial residual = 0.0161841, Final residual = 8.44454e-07, No Iterations 70
time step continuity errors : sum local = 5.65494e-11, global = -2.43019e-12, cumulative = -2.74451e-11
DICPCG:  Solving for p, Initial residual = 0.00231101, Final residual = 9.84572e-07, No Iterations 53
time step continuity errors : sum local = 6.617e-11, global = 1.01636e-11, cumulative = -1.72815e-11
ExecutionTime = 0.25 s  ClockTime = 0 s

Time = 0.009

Courant Number mean: 0.383098 max: 0.618365
smoothSolver:  Solving for Ux, Initial residual = 0.017809, Final residual = 3.89282e-06, No Iterations 2
smoothSolver:  Solving for Uy, Initial residual = 0.0399625, Final residual = 1.18316e-06, No Iterations 3
DICPCG:  Solving for p, Initial residual = 0.017733, Final residual = 8.36613e-07, No Iterations 73
time step continuity errors : sum local = 5.68599e-11, global = 1.54944e-12, cumulative = -1.57321e-11
DICPCG:  Solving for p, Initial residual = 0.00223014, Final residual = 9.44222e-07, No Iterations 59
time step continuity errors : sum local = 6.81407e-11, global = 9.03803e-12, cumulative = -6.69406e-12
ExecutionTime = 0.27 s  ClockTime = 0 s

Time = 0.01

Courant Number mean: 0.382957 max: 0.619405
smoothSolver:  Solving for Ux, Initial residual = 0.0156405, Final residual = 3.43059e-06, No Iterations 2
smoothSolver:  Solving for Uy, Initial residual = 0.0379929, Final residual = 9.9792e-07, No Iterations 3
DICPCG:  Solving for p, Initial residual = 0.0152078, Final residual = 9.5753e-07, No Iterations 70
time step continuity errors : sum local = 6.9401e-11, global = 2.40686e-12, cumulative = -4.2872e-12
DICPCG:  Solving for p, Initial residual = 0.00244896, Final residual = 9.62939e-07, No Iterations 51
time step continuity errors : sum local = 6.59635e-11, global = -2.85578e-12, cumulative = -7.14299e-12
ExecutionTime = 0.29 s  ClockTime = 0 s

Time = 0.011

Courant Number mean: 0.382824 max: 0.619785
smoothSolver:  Solving for Ux, Initial residual = 0.0137835, Final residual = 2.98187e-06, No Iterations 2
smoothSolver:  Solving for Uy, Initial residual = 0.0329926, Final residual = 9.88052e-07, No Iterations 3
DICPCG:  Solving for p, Initial residual = 0.0167616, Final residual = 7.91177e-07, No Iterations 68
time step continuity errors : sum local = 5.45017e-11, global = -1.64174e-12, cumulative = -8.78473e-12
DICPCG:  Solving for p, Initial residual = 0.00227775, Final residual = 9.26881e-07, No Iterations 48
time step continuity errors : sum local = 6.40978e-11, global = -9.9972e-12, cumulative = -1.87819e-11
ExecutionTime = 0.31 s  ClockTime = 0 s

Time = 0.012

Courant Number mean: 0.382699 max: 0.622579
smoothSolver:  Solving for Ux, Initial residual = 0.012344, Final residual = 2.66358e-06, No Iterations 2
smoothSolver:  Solving for Uy, Initial residual = 0.0305647, Final residual = 1.01608e-06, No Iterations 3
DICPCG:  Solving for p, Initial residual = 0.0167419, Final residual = 9.9683e-07, No Iterations 64
time step continuity errors : sum local = 6.92695e-11, global = -4.17705e-12, cumulative = -2.2959e-11
DICPCG:  Solving for p, Initial residual = 0.00229767, Final residual = 9.99863e-07, No Iterations 52
time step continuity errors : sum local = 6.89474e-11, global = -1.59266e-12, cumulative = -2.45516e-11
ExecutionTime = 0.34 s  ClockTime = 0 s

Time = 0.013

Courant Number mean: 0.382582 max: 0.62422
smoothSolver:  Solving for Ux, Initial residual = 0.0111469, Final residual = 2.45412e-06, No Iterations 2
smoothSolver:  Solving for Uy, Initial residual = 0.0281852, Final residual = 9.90093e-07, No Iterations 3
DICPCG:  Solving for p, Initial residual = 0.0173182, Final residual = 8.72179e-07, No Iterations 66
time step continuity errors : sum local = 6.0444e-11, global = 3.29528e-12, cumulative = -2.12564e-11
DICPCG:  Solving for p, Initial residual = 0.00258886, Final residual = 7.82235e-07, No Iterations 55
time step continuity errors : sum local = 5.15191e-11, global = -9.1793e-13, cumulative = -2.21743e-11
ExecutionTime = 0.36 s  ClockTime = 0 s

Time = 0.014

Courant Number mean: 0.38247 max: 0.624672
smoothSolver:  Solving for Ux, Initial residual = 0.0100996, Final residual = 2.2686e-06, No Iterations 2
smoothSolver:  Solving for Uy, Initial residual = 0.0250552, Final residual = 8.90964e-07, No Iterations 3
DICPCG:  Solving for p, Initial residual = 0.0194682, Final residual = 9.02409e-07, No Iterations 70
time step continuity errors : sum local = 5.97494e-11, global = -1.60175e-12, cumulative = -2.3776e-11
DICPCG:  Solving for p, Initial residual = 0.00310766, Final residual = 9.20107e-07, No Iterations 55
time step continuity errors : sum local = 5.56954e-11, global = -4.64009e-13, cumulative = -2.424e-11
ExecutionTime = 0.38 s  ClockTime = 0 s

Time = 0.015

Courant Number mean: 0.382361 max: 0.624041
smoothSolver:  Solving for Ux, Initial residual = 0.0091851, Final residual = 2.07549e-06, No Iterations 2
smoothSolver:  Solving for Uy, Initial residual = 0.0217352, Final residual = 7.42184e-07, No Iterations 3
DICPCG:  Solving for p, Initial residual = 0.0248872, Final residual = 6.31747e-07, No Iterations 75
time step continuity errors : sum local = 3.83089e-11, global = 1.04823e-12, cumulative = -2.31918e-11
DICPCG:  Solving for p, Initial residual = 0.00401172, Final residual = 8.61433e-07, No Iterations 60
time step continuity errors : sum local = 4.41886e-11, global = -4.75666e-12, cumulative = -2.79485e-11
ExecutionTime = 0.41 s  ClockTime = 0 s

Time = 0.016

Courant Number mean: 0.38225 max: 0.622475
smoothSolver:  Solving for Ux, Initial residual = 0.00835893, Final residual = 1.85496e-06, No Iterations 2
smoothSolver:  Solving for Uy, Initial residual = 0.0177767, Final residual = 5.36969e-07, No Iterations 3
DICPCG:  Solving for p, Initial residual = 0.0269739, Final residual = 8.39484e-07, No Iterations 69
time step continuity errors : sum local = 4.34962e-11, global = 1.5484e-12, cumulative = -2.64001e-11
DICPCG:  Solving for p, Initial residual = 0.00342574, Final residual = 9.33692e-07, No Iterations 57
time step continuity errors : sum local = 4.89428e-11, global = 7.03538e-12, cumulative = -1.93647e-11
ExecutionTime = 0.43 s  ClockTime = 0 s

Time = 0.017

Courant Number mean: 0.382142 max: 0.621193
smoothSolver:  Solving for Ux, Initial residual = 0.00774405, Final residual = 1.73228e-06, No Iterations 2
smoothSolver:  Solving for Uy, Initial residual = 0.0169616, Final residual = 4.61994e-07, No Iterations 3
DICPCG:  Solving for p, Initial residual = 0.0231903, Final residual = 9.94115e-07, No Iterations 70
time step continuity errors : sum local = 5.19952e-11, global = -1.98391e-12, cumulative = -2.13486e-11
DICPCG:  Solving for p, Initial residual = 0.0033154, Final residual = 8.54865e-07, No Iterations 53
time step continuity errors : sum local = 4.34518e-11, global = -8.91586e-13, cumulative = -2.22402e-11
ExecutionTime = 0.46 s  ClockTime = 0 s

Time = 0.018

Courant Number mean: 0.382037 max: 0.620779
smoothSolver:  Solving for Ux, Initial residual = 0.0071896, Final residual = 1.5817e-06, No Iterations 2
smoothSolver:  Solving for Uy, Initial residual = 0.0158155, Final residual = 4.61845e-07, No Iterations 3
DICPCG:  Solving for p, Initial residual = 0.0231668, Final residual = 9.45071e-07, No Iterations 65
time step continuity errors : sum local = 4.79822e-11, global = -4.25323e-12, cumulative = -2.64934e-11
DICPCG:  Solving for p, Initial residual = 0.00331674, Final residual = 8.79532e-07, No Iterations 53
time step continuity errors : sum local = 4.39217e-11, global = -4.46137e-13, cumulative = -2.69396e-11
ExecutionTime = 0.49 s  ClockTime = 0 s

Time = 0.019

Courant Number mean: 0.381935 max: 0.619699
smoothSolver:  Solving for Ux, Initial residual = 0.0067087, Final residual = 1.43419e-06, No Iterations 2
smoothSolver:  Solving for Uy, Initial residual = 0.0150844, Final residual = 4.98835e-07, No Iterations 3
DICPCG:  Solving for p, Initial residual = 0.0252186, Final residual = 9.84004e-07, No Iterations 67
time step continuity errors : sum local = 4.9238e-11, global = 1.40532e-12, cumulative = -2.55342e-11
DICPCG:  Solving for p, Initial residual = 0.00341697, Final residual = 9.5536e-07, No Iterations 49
time step continuity errors : sum local = 4.7705e-11, global = -1.62131e-12, cumulative = -2.71555e-11
ExecutionTime = 0.51 s  ClockTime = 0 s

Time = 0.02

Courant Number mean: 0.381839 max: 0.618236
smoothSolver:  Solving for Ux, Initial residual = 0.00628969, Final residual = 1.30945e-06, No Iterations 2
smoothSolver:  Solving for Uy, Initial residual = 0.0145107, Final residual = 5.12566e-07, No Iterations 3
DICPCG:  Solving for p, Initial residual = 0.0266575, Final residual = 9.57226e-07, No Iterations 64
time step continuity errors : sum local = 4.7796e-11, global = -2.00569e-12, cumulative = -2.91612e-11
DICPCG:  Solving for p, Initial residual = 0.00346945, Final residual = 9.51276e-07, No Iterations 56
time step continuity errors : sum local = 4.58346e-11, global = 6.47092e-12, cumulative = -2.26903e-11
ExecutionTime = 0.54 s  ClockTime = 0 s

Time = 0.021

Courant Number mean: 0.381747 max: 0.616681
smoothSolver:  Solving for Ux, Initial residual = 0.0059044, Final residual = 1.24871e-06, No Iterations 2
smoothSolver:  Solving for Uy, Initial residual = 0.0135868, Final residual = 4.92588e-07, No Iterations 3
DICPCG:  Solving for p, Initial residual = 0.0259284, Final residual = 9.03362e-07, No Iterations 73
time step continuity errors : sum local = 4.35522e-11, global = 1.45908e-12, cumulative = -2.12312e-11
DICPCG:  Solving for p, Initial residual = 0.00324755, Final residual = 9.66896e-07, No Iterations 56
time step continuity errors : sum local = 4.87313e-11, global = 7.24778e-12, cumulative = -1.39834e-11
ExecutionTime = 0.56 s  ClockTime = 0 s

Time = 0.022

Courant Number mean: 0.381661 max: 0.615404
smoothSolver:  Solving for Ux, Initial residual = 0.00558243, Final residual = 1.22968e-06, No Iterations 2
smoothSolver:  Solving for Uy, Initial residual = 0.0137267, Final residual = 4.63805e-07, No Iterations 3
DICPCG:  Solving for p, Initial residual = 0.0236615, Final residual = 9.97862e-07, No Iterations 66
time step continuity errors : sum local = 5.02009e-11, global = -3.0832e-12, cumulative = -1.70666e-11
DICPCG:  Solving for p, Initial residual = 0.00323043, Final residual = 8.8332e-07, No Iterations 56
time step continuity errors : sum local = 4.31885e-11, global = 6.24214e-12, cumulative = -1.08245e-11
ExecutionTime = 0.58 s  ClockTime = 0 s

Time = 0.023

Courant Number mean: 0.381578 max: 0.616282
smoothSolver:  Solving for Ux, Initial residual = 0.00527326, Final residual = 1.19359e-06, No Iterations 2
smoothSolver:  Solving for Uy, Initial residual = 0.0130328, Final residual = 4.03288e-07, No Iterations 3
DICPCG:  Solving for p, Initial residual = 0.0235053, Final residual = 8.11494e-07, No Iterations 68
time step continuity errors : sum local = 3.96718e-11, global = -1.62441e-12, cumulative = -1.24489e-11
DICPCG:  Solving for p, Initial residual = 0.0031761, Final residual = 9.03605e-07, No Iterations 55
time step continuity errors : sum local = 4.32152e-11, global = 6.06551e-12, cumulative = -6.3834e-12
ExecutionTime = 0.61 s  ClockTime = 0 s

Time = 0.024

Courant Number mean: 0.381496 max: 0.617513
smoothSolver:  Solving for Ux, Initial residual = 0.00499184, Final residual = 1.14524e-06, No Iterations 2
smoothSolver:  Solving for Uy, Initial residual = 0.0123347, Final residual = 9.40713e-06, No Iterations 2
DICPCG:  Solving for p, Initial residual = 0.0240234, Final residual = 9.38187e-07, No Iterations 69
time step continuity errors : sum local = 4.48928e-11, global = -2.30144e-12, cumulative = -8.68484e-12
DICPCG:  Solving for p, Initial residual = 0.00335163, Final residual = 9.28872e-07, No Iterations 49
time step continuity errors : sum local = 4.3212e-11, global = -1.36796e-12, cumulative = -1.00528e-11
ExecutionTime = 0.63 s  ClockTime = 0 s

Time = 0.025

Courant Number mean: 0.381416 max: 0.6188
smoothSolver:  Solving for Ux, Initial residual = 0.00474035, Final residual = 1.08596e-06, No Iterations 2
smoothSolver:  Solving for Uy, Initial residual = 0.0115849, Final residual = 8.77371e-06, No Iterations 2
DICPCG:  Solving for p, Initial residual = 0.0240795, Final residual = 9.56351e-07, No Iterations 65
time step continuity errors : sum local = 4.46016e-11, global = 1.20188e-12, cumulative = -8.85092e-12
DICPCG:  Solving for p, Initial residual = 0.00322972, Final residual = 9.45199e-07, No Iterations 47
time step continuity errors : sum local = 4.36036e-11, global = -4.43644e-12, cumulative = -1.32874e-11
ExecutionTime = 0.65 s  ClockTime = 0 s

Time = 0.026

Courant Number mean: 0.38134 max: 0.619891
smoothSolver:  Solving for Ux, Initial residual = 0.00451719, Final residual = 1.017e-06, No Iterations 2
smoothSolver:  Solving for Uy, Initial residual = 0.0111544, Final residual = 9.00569e-06, No Iterations 2
DICPCG:  Solving for p, Initial residual = 0.0249277, Final residual = 8.04533e-07, No Iterations 68
time step continuity errors : sum local = 3.716e-11, global = 1.56561e-12, cumulative = -1.17218e-11
DICPCG:  Solving for p, Initial residual = 0.0031261, Final residual = 9.85309e-07, No Iterations 45
time step continuity errors : sum local = 4.55678e-11, global = -8.04761e-13, cumulative = -1.25265e-11
ExecutionTime = 0.67 s  ClockTime = 0 s

Time = 0.027

Courant Number mean: 0.381266 max: 0.620575
smoothSolver:  Solving for Ux, Initial residual = 0.00431594, Final residual = 9.44645e-07, No Iterations 2
smoothSolver:  Solving for Uy, Initial residual = 0.0109317, Final residual = 9.11767e-06, No Iterations 2
DICPCG:  Solving for p, Initial residual = 0.0241287, Final residual = 9.1493e-07, No Iterations 68
time step continuity errors : sum local = 4.23675e-11, global = 7.79463e-13, cumulative = -1.17471e-11
DICPCG:  Solving for p, Initial residual = 0.00311049, Final residual = 8.48656e-07, No Iterations 52
time step continuity errors : sum local = 3.72196e-11, global = -1.401e-12, cumulative = -1.3148e-11
ExecutionTime = 0.69 s  ClockTime = 0 s

Time = 0.028

Courant Number mean: 0.381194 max: 0.620694
smoothSolver:  Solving for Ux, Initial residual = 0.00411535, Final residual = 8.75769e-07, No Iterations 2
smoothSolver:  Solving for Uy, Initial residual = 0.0101705, Final residual = 8.61429e-06, No Iterations 2
DICPCG:  Solving for p, Initial residual = 0.0243441, Final residual = 8.73203e-07, No Iterations 67
time step continuity errors : sum local = 3.84399e-11, global = 2.06835e-13, cumulative = -1.29412e-11
DICPCG:  Solving for p, Initial residual = 0.00298588, Final residual = 9.33766e-07, No Iterations 49
time step continuity errors : sum local = 4.19408e-11, global = -4.26189e-12, cumulative = -1.72031e-11
ExecutionTime = 0.71 s  ClockTime = 0 s

Time = 0.029

Courant Number mean: 0.381125 max: 0.620251
smoothSolver:  Solving for Ux, Initial residual = 0.00394016, Final residual = 8.56854e-07, No Iterations 2
smoothSolver:  Solving for Uy, Initial residual = 0.010046, Final residual = 8.35036e-06, No Iterations 2
DICPCG:  Solving for p, Initial residual = 0.0236101, Final residual = 9.02641e-07, No Iterations 70
time step continuity errors : sum local = 4.05971e-11, global = -1.94934e-12, cumulative = -1.91524e-11
DICPCG:  Solving for p, Initial residual = 0.00333078, Final residual = 8.7292e-07, No Iterations 52
time step continuity errors : sum local = 3.67581e-11, global = -1.5421e-12, cumulative = -2.06945e-11
ExecutionTime = 0.74 s  ClockTime = 0 s

Time = 0.03

Courant Number mean: 0.381055 max: 0.619316
smoothSolver:  Solving for Ux, Initial residual = 0.00377206, Final residual = 8.43018e-07, No Iterations 2
smoothSolver:  Solving for Uy, Initial residual = 0.00931477, Final residual = 7.4664e-06, No Iterations 2
DICPCG:  Solving for p, Initial residual = 0.0237159, Final residual = 9.1382e-07, No Iterations 64
time step continuity errors : sum local = 3.86043e-11, global = -2.53831e-12, cumulative = -2.32329e-11
DICPCG:  Solving for p, Initial residual = 0.0030039, Final residual = 8.63297e-07, No Iterations 50
time step continuity errors : sum local = 3.60731e-11, global = -2.69523e-12, cumulative = -2.59281e-11
ExecutionTime = 0.76 s  ClockTime = 0 s

Time = 0.031

Courant Number mean: 0.380985 max: 0.619481
smoothSolver:  Solving for Ux, Initial residual = 0.00362551, Final residual = 8.23343e-07, No Iterations 2
smoothSolver:  Solving for Uy, Initial residual = 0.00901175, Final residual = 6.7516e-06, No Iterations 2
DICPCG:  Solving for p, Initial residual = 0.0242684, Final residual = 9.25212e-07, No Iterations 68
time step continuity errors : sum local = 3.87647e-11, global = -8.4896e-13, cumulative = -2.6777e-11
DICPCG:  Solving for p, Initial residual = 0.00308972, Final residual = 8.21256e-07, No Iterations 52
time step continuity errors : sum local = 3.23813e-11, global = -1.38709e-12, cumulative = -2.81641e-11
ExecutionTime = 0.79 s  ClockTime = 0 s

Time = 0.032

Courant Number mean: 0.380917 max: 0.619284
smoothSolver:  Solving for Ux, Initial residual = 0.00348718, Final residual = 7.9129e-07, No Iterations 2
smoothSolver:  Solving for Uy, Initial residual = 0.00832041, Final residual = 6.14631e-06, No Iterations 2
DICPCG:  Solving for p, Initial residual = 0.0263697, Final residual = 9.89312e-07, No Iterations 71
time step continuity errors : sum local = 3.90965e-11, global = 1.80587e-12, cumulative = -2.63583e-11
DICPCG:  Solving for p, Initial residual = 0.00297003, Final residual = 8.97672e-07, No Iterations 48
time step continuity errors : sum local = 3.63896e-11, global = -2.06843e-12, cumulative = -2.84267e-11
ExecutionTime = 0.81 s  ClockTime = 0 s

Time = 0.033

Courant Number mean: 0.380851 max: 0.618662
smoothSolver:  Solving for Ux, Initial residual = 0.00336526, Final residual = 7.47044e-07, No Iterations 2
smoothSolver:  Solving for Uy, Initial residual = 0.0082909, Final residual = 6.39186e-06, No Iterations 2
DICPCG:  Solving for p, Initial residual = 0.0243495, Final residual = 8.91552e-07, No Iterations 67
time step continuity errors : sum local = 3.61389e-11, global = 3.22572e-13, cumulative = -2.81041e-11
DICPCG:  Solving for p, Initial residual = 0.00308351, Final residual = 9.34859e-07, No Iterations 44
time step continuity errors : sum local = 3.51914e-11, global = -1.55004e-12, cumulative = -2.96541e-11
ExecutionTime = 0.83 s  ClockTime = 0 s

Time = 0.034

Courant Number mean: 0.380786 max: 0.617729
smoothSolver:  Solving for Ux, Initial residual = 0.00324539, Final residual = 6.97291e-07, No Iterations 2
smoothSolver:  Solving for Uy, Initial residual = 0.00776295, Final residual = 6.23331e-06, No Iterations 2
DICPCG:  Solving for p, Initial residual = 0.024793, Final residual = 9.01644e-07, No Iterations 72
time step continuity errors : sum local = 3.39766e-11, global = 9.30715e-13, cumulative = -2.87234e-11
DICPCG:  Solving for p, Initial residual = 0.00282583, Final residual = 9.62531e-07, No Iterations 53
time step continuity errors : sum local = 3.80568e-11, global = 4.10606e-12, cumulative = -2.46174e-11
ExecutionTime = 0.85 s  ClockTime = 0 s

Time = 0.035

Courant Number mean: 0.380723 max: 0.616685
smoothSolver:  Solving for Ux, Initial residual = 0.00313647, Final residual = 6.5006e-07, No Iterations 2
smoothSolver:  Solving for Uy, Initial residual = 0.00786477, Final residual = 6.33413e-06, No Iterations 2
DICPCG:  Solving for p, Initial residual = 0.0225168, Final residual = 9.50597e-07, No Iterations 65
time step continuity errors : sum local = 3.75584e-11, global = 4.1284e-14, cumulative = -2.45761e-11
DICPCG:  Solving for p, Initial residual = 0.00272577, Final residual = 9.01549e-07, No Iterations 54
time step continuity errors : sum local = 3.4907e-11, global = 4.81052e-12, cumulative = -1.97656e-11
ExecutionTime = 0.87 s  ClockTime = 0 s

Time = 0.036

Courant Number mean: 0.380661 max: 0.615706
smoothSolver:  Solving for Ux, Initial residual = 0.0030311, Final residual = 6.11664e-07, No Iterations 2
smoothSolver:  Solving for Uy, Initial residual = 0.00755551, Final residual = 6.06048e-06, No Iterations 2
DICPCG:  Solving for p, Initial residual = 0.0236411, Final residual = 7.9988e-07, No Iterations 63
time step continuity errors : sum local = 3.09432e-11, global = -1.67415e-12, cumulative = -2.14397e-11
DICPCG:  Solving for p, Initial residual = 0.00280745, Final residual = 8.62462e-07, No Iterations 54
time step continuity errors : sum local = 3.23627e-11, global = 4.63317e-12, cumulative = -1.68066e-11
ExecutionTime = 0.9 s  ClockTime = 0 s

Time = 0.037

Courant Number mean: 0.380598 max: 0.615019
smoothSolver:  Solving for Ux, Initial residual = 0.00293649, Final residual = 6.05098e-07, No Iterations 2
smoothSolver:  Solving for Uy, Initial residual = 0.00727075, Final residual = 5.62552e-06, No Iterations 2
DICPCG:  Solving for p, Initial residual = 0.0237525, Final residual = 8.5509e-07, No Iterations 72
time step continuity errors : sum local = 3.21256e-11, global = 9.25671e-13, cumulative = -1.58809e-11
DICPCG:  Solving for p, Initial residual = 0.00260174, Final residual = 9.97593e-07, No Iterations 53
time step continuity errors : sum local = 3.91349e-11, global = 4.47704e-12, cumulative = -1.14039e-11
ExecutionTime = 0.92 s  ClockTime = 0 s

Time = 0.038

Courant Number mean: 0.380539 max: 0.615841
smoothSolver:  Solving for Ux, Initial residual = 0.00285009, Final residual = 5.98419e-07, No Iterations 2
smoothSolver:  Solving for Uy, Initial residual = 0.00738288, Final residual = 5.39409e-06, No Iterations 2
DICPCG:  Solving for p, Initial residual = 0.0230239, Final residual = 9.47844e-07, No Iterations 65
time step continuity errors : sum local = 3.71529e-11, global = 3.3663e-12, cumulative = -8.03756e-12
DICPCG:  Solving for p, Initial residual = 0.00272611, Final residual = 8.86273e-07, No Iterations 54
time step continuity errors : sum local = 3.33887e-11, global = 4.388e-12, cumulative = -3.64956e-12
ExecutionTime = 0.94 s  ClockTime = 1 s

Time = 0.039

Courant Number mean: 0.380481 max: 0.616755
smoothSolver:  Solving for Ux, Initial residual = 0.00276783, Final residual = 5.84497e-07, No Iterations 2
smoothSolver:  Solving for Uy, Initial residual = 0.00700161, Final residual = 5.18813e-06, No Iterations 2
DICPCG:  Solving for p, Initial residual = 0.0218649, Final residual = 8.83142e-07, No Iterations 61
time step continuity errors : sum local = 3.32718e-11, global = 3.2172e-12, cumulative = -4.32358e-13
DICPCG:  Solving for p, Initial residual = 0.00238809, Final residual = 9.49226e-07, No Iterations 50
time step continuity errors : sum local = 3.58248e-11, global = 5.5259e-12, cumulative = 5.09354e-12
ExecutionTime = 0.96 s  ClockTime = 1 s

Time = 0.04

Courant Number mean: 0.380425 max: 0.617578
smoothSolver:  Solving for Ux, Initial residual = 0.00269142, Final residual = 5.62868e-07, No Iterations 2
smoothSolver:  Solving for Uy, Initial residual = 0.00691759, Final residual = 5.30248e-06, No Iterations 2
DICPCG:  Solving for p, Initial residual = 0.0225287, Final residual = 8.92636e-07, No Iterations 65
time step continuity errors : sum local = 3.36762e-11, global = -5.22676e-14, cumulative = 5.04127e-12
DICPCG:  Solving for p, Initial residual = 0.0023469, Final residual = 9.74507e-07, No Iterations 49
time step continuity errors : sum local = 3.64974e-11, global = 5.11391e-12, cumulative = 1.01552e-11
ExecutionTime = 0.99 s  ClockTime = 1 s

Time = 0.041

Courant Number mean: 0.38037 max: 0.618148
smoothSolver:  Solving for Ux, Initial residual = 0.00261664, Final residual = 5.35922e-07, No Iterations 2
smoothSolver:  Solving for Uy, Initial residual = 0.00681671, Final residual = 5.34539e-06, No Iterations 2
DICPCG:  Solving for p, Initial residual = 0.0220226, Final residual = 7.7223e-07, No Iterations 66
time step continuity errors : sum local = 2.8932e-11, global = -1.58936e-13, cumulative = 9.99624e-12
DICPCG:  Solving for p, Initial residual = 0.00227348, Final residual = 9.79244e-07, No Iterations 48
time step continuity errors : sum local = 3.74267e-11, global = -1.99754e-12, cumulative = 7.9987e-12
ExecutionTime = 1.01 s  ClockTime = 1 s

Time = 0.042

Courant Number mean: 0.380318 max: 0.618368
smoothSolver:  Solving for Ux, Initial residual = 0.00254162, Final residual = 5.03415e-07, No Iterations 2
smoothSolver:  Solving for Uy, Initial residual = 0.00681746, Final residual = 5.38393e-06, No Iterations 2
DICPCG:  Solving for p, Initial residual = 0.0213264, Final residual = 8.07662e-07, No Iterations 65
time step continuity errors : sum local = 3.09118e-11, global = -2.55078e-13, cumulative = 7.74362e-12
DICPCG:  Solving for p, Initial residual = 0.00236987, Final residual = 8.67432e-07, No Iterations 48
time step continuity errors : sum local = 3.26827e-11, global = -2.01019e-12, cumulative = 5.73343e-12
ExecutionTime = 1.05 s  ClockTime = 1 s

Time = 0.043

Courant Number mean: 0.380265 max: 0.618209
smoothSolver:  Solving for Ux, Initial residual = 0.00247323, Final residual = 4.84881e-07, No Iterations 2
smoothSolver:  Solving for Uy, Initial residual = 0.00663987, Final residual = 5.18234e-06, No Iterations 2
DICPCG:  Solving for p, Initial residual = 0.0211403, Final residual = 8.84331e-07, No Iterations 66
time step continuity errors : sum local = 3.33836e-11, global = -1.65089e-12, cumulative = 4.08254e-12
DICPCG:  Solving for p, Initial residual = 0.00223401, Final residual = 8.50421e-07, No Iterations 49
time step continuity errors : sum local = 3.26745e-11, global = -3.03708e-12, cumulative = 1.04546e-12
ExecutionTime = 1.07 s  ClockTime = 1 s

Time = 0.044

Courant Number mean: 0.380214 max: 0.617721
smoothSolver:  Solving for Ux, Initial residual = 0.00241043, Final residual = 4.76675e-07, No Iterations 2
smoothSolver:  Solving for Uy, Initial residual = 0.00663757, Final residual = 4.97631e-06, No Iterations 2
DICPCG:  Solving for p, Initial residual = 0.02327, Final residual = 9.72306e-07, No Iterations 67
time step continuity errors : sum local = 3.73731e-11, global = -2.06252e-13, cumulative = 8.39204e-13
DICPCG:  Solving for p, Initial residual = 0.00257194, Final residual = 9.09067e-07, No Iterations 52
time step continuity errors : sum local = 3.25757e-11, global = -3.22893e-13, cumulative = 5.16312e-13
ExecutionTime = 1.1 s  ClockTime = 1 s

Time = 0.045

Courant Number mean: 0.380163 max: 0.617078
smoothSolver:  Solving for Ux, Initial residual = 0.00235184, Final residual = 4.69866e-07, No Iterations 2
smoothSolver:  Solving for Uy, Initial residual = 0.00619138, Final residual = 4.49001e-06, No Iterations 2
DICPCG:  Solving for p, Initial residual = 0.0228986, Final residual = 8.36924e-07, No Iterations 61
time step continuity errors : sum local = 3.00335e-11, global = -1.25533e-13, cumulative = 3.90779e-13
DICPCG:  Solving for p, Initial residual = 0.00244105, Final residual = 9.17178e-07, No Iterations 51
time step continuity errors : sum local = 3.19106e-11, global = -4.22145e-13, cumulative = -3.13661e-14
ExecutionTime = 1.12 s  ClockTime = 1 s

Time = 0.046

Courant Number mean: 0.380111 max: 0.616973
smoothSolver:  Solving for Ux, Initial residual = 0.00229495, Final residual = 4.58306e-07, No Iterations 2
smoothSolver:  Solving for Uy, Initial residual = 0.00592568, Final residual = 4.29508e-06, No Iterations 2
DICPCG:  Solving for p, Initial residual = 0.0226905, Final residual = 8.55945e-07, No Iterations 67
time step continuity errors : sum local = 2.98222e-11, global = 9.77494e-13, cumulative = 9.46128e-13
DICPCG:  Solving for p, Initial residual = 0.00237733, Final residual = 9.93644e-07, No Iterations 50
time step continuity errors : sum local = 3.30769e-11, global = -1.35032e-12, cumulative = -4.04192e-13
ExecutionTime = 1.15 s  ClockTime = 1 s

Time = 0.047

Courant Number mean: 0.38006 max: 0.616621
smoothSolver:  Solving for Ux, Initial residual = 0.00224373, Final residual = 4.43717e-07, No Iterations 2
smoothSolver:  Solving for Uy, Initial residual = 0.00569663, Final residual = 4.22883e-06, No Iterations 2
DICPCG:  Solving for p, Initial residual = 0.0233633, Final residual = 9.12969e-07, No Iterations 65
time step continuity errors : sum local = 3.03928e-11, global = 4.09884e-13, cumulative = 5.69176e-15
DICPCG:  Solving for p, Initial residual = 0.00229853, Final residual = 9.6559e-07, No Iterations 42
time step continuity errors : sum local = 3.19926e-11, global = -7.40278e-13, cumulative = -7.34587e-13
ExecutionTime = 1.17 s  ClockTime = 1 s

Time = 0.048

Courant Number mean: 0.38001 max: 0.616105
smoothSolver:  Solving for Ux, Initial residual = 0.00219073, Final residual = 4.25664e-07, No Iterations 2
smoothSolver:  Solving for Uy, Initial residual = 0.00559188, Final residual = 4.27197e-06, No Iterations 2
DICPCG:  Solving for p, Initial residual = 0.0226165, Final residual = 8.12874e-07, No Iterations 66
time step continuity errors : sum local = 2.69491e-11, global = 8.90918e-13, cumulative = 1.56332e-13
DICPCG:  Solving for p, Initial residual = 0.00221964, Final residual = 9.85401e-07, No Iterations 41
time step continuity errors : sum local = 3.25609e-11, global = -4.49866e-13, cumulative = -2.93535e-13
ExecutionTime = 1.2 s  ClockTime = 1 s

Time = 0.049

Courant Number mean: 0.379961 max: 0.615534
smoothSolver:  Solving for Ux, Initial residual = 0.00213783, Final residual = 4.11245e-07, No Iterations 2
smoothSolver:  Solving for Uy, Initial residual = 0.00551839, Final residual = 4.24086e-06, No Iterations 2
DICPCG:  Solving for p, Initial residual = 0.0223765, Final residual = 9.28382e-07, No Iterations 67
time step continuity errors : sum local = 3.07055e-11, global = -2.88608e-13, cumulative = -5.82142e-13
DICPCG:  Solving for p, Initial residual = 0.00223337, Final residual = 9.32578e-07, No Iterations 50
time step continuity errors : sum local = 3.0977e-11, global = 4.76071e-12, cumulative = 4.17857e-12
ExecutionTime = 1.22 s  ClockTime = 1 s

Time = 0.05

Courant Number mean: 0.379911 max: 0.615019
smoothSolver:  Solving for Ux, Initial residual = 0.00208921, Final residual = 4.00745e-07, No Iterations 2
smoothSolver:  Solving for Uy, Initial residual = 0.00545719, Final residual = 4.14198e-06, No Iterations 2
DICPCG:  Solving for p, Initial residual = 0.0234246, Final residual = 7.16569e-07, No Iterations 67
time step continuity errors : sum local = 2.38456e-11, global = 1.03017e-12, cumulative = 5.20874e-12
DICPCG:  Solving for p, Initial residual = 0.00223179, Final residual = 9.20342e-07, No Iterations 51
time step continuity errors : sum local = 3.21062e-11, global = 3.84933e-12, cumulative = 9.05807e-12
ExecutionTime = 1.28 s  ClockTime = 1 s

Time = 0.051

Courant Number mean: 0.379863 max: 0.614831
smoothSolver:  Solving for Ux, Initial residual = 0.00204315, Final residual = 3.91321e-07, No Iterations 2
smoothSolver:  Solving for Uy, Initial residual = 0.00554549, Final residual = 4.07746e-06, No Iterations 2
DICPCG:  Solving for p, Initial residual = 0.0223445, Final residual = 9.52379e-07, No Iterations 69
time step continuity errors : sum local = 3.31966e-11, global = 2.36724e-12, cumulative = 1.14253e-11
DICPCG:  Solving for p, Initial residual = 0.00220093, Final residual = 9.54125e-07, No Iterations 52
time step continuity errors : sum local = 3.2481e-11, global = 4.93705e-12, cumulative = 1.63624e-11
ExecutionTime = 1.3 s  ClockTime = 1 s

Time = 0.052

Courant Number mean: 0.379817 max: 0.615298
smoothSolver:  Solving for Ux, Initial residual = 0.0020005, Final residual = 3.8648e-07, No Iterations 2
smoothSolver:  Solving for Uy, Initial residual = 0.00541226, Final residual = 3.86583e-06, No Iterations 2
DICPCG:  Solving for p, Initial residual = 0.0231194, Final residual = 9.9133e-07, No Iterations 67
time step continuity errors : sum local = 3.37708e-11, global = 1.61586e-12, cumulative = 1.79782e-11
DICPCG:  Solving for p, Initial residual = 0.00220382, Final residual = 9.98351e-07, No Iterations 50
time step continuity errors : sum local = 3.48414e-11, global = 5.24601e-12, cumulative = 2.32242e-11
ExecutionTime = 1.33 s  ClockTime = 1 s

Time = 0.053

Courant Number mean: 0.379772 max: 0.615839
smoothSolver:  Solving for Ux, Initial residual = 0.00195688, Final residual = 3.74828e-07, No Iterations 2
smoothSolver:  Solving for Uy, Initial residual = 0.00540908, Final residual = 3.84314e-06, No Iterations 2
DICPCG:  Solving for p, Initial residual = 0.0227535, Final residual = 6.80501e-07, No Iterations 70
time step continuity errors : sum local = 2.37788e-11, global = 5.42076e-13, cumulative = 2.37663e-11
DICPCG:  Solving for p, Initial residual = 0.00234085, Final residual = 9.56193e-07, No Iterations 49
time step continuity errors : sum local = 3.24805e-11, global = 5.09434e-12, cumulative = 2.88607e-11
ExecutionTime = 1.36 s  ClockTime = 1 s

Time = 0.054

Courant Number mean: 0.379729 max: 0.616331
smoothSolver:  Solving for Ux, Initial residual = 0.00191882, Final residual = 3.63845e-07, No Iterations 2
smoothSolver:  Solving for Uy, Initial residual = 0.00529845, Final residual = 3.84627e-06, No Iterations 2
DICPCG:  Solving for p, Initial residual = 0.0231415, Final residual = 9.39843e-07, No Iterations 64
time step continuity errors : sum local = 3.19006e-11, global = -1.91867e-12, cumulative = 2.6942e-11
DICPCG:  Solving for p, Initial residual = 0.00217429, Final residual = 8.31614e-07, No Iterations 50
time step continuity errors : sum local = 2.79597e-11, global = 5.61546e-12, cumulative = 3.25574e-11
ExecutionTime = 1.39 s  ClockTime = 1 s

Time = 0.055

Courant Number mean: 0.379686 max: 0.616669
smoothSolver:  Solving for Ux, Initial residual = 0.00188192, Final residual = 3.52605e-07, No Iterations 2
smoothSolver:  Solving for Uy, Initial residual = 0.00520603, Final residual = 3.86202e-06, No Iterations 2
DICPCG:  Solving for p, Initial residual = 0.0211383, Final residual = 8.26068e-07, No Iterations 63
time step continuity errors : sum local = 2.7762e-11, global = 1.50036e-12, cumulative = 3.40578e-11
DICPCG:  Solving for p, Initial residual = 0.00212244, Final residual = 9.11326e-07, No Iterations 44
time step continuity errors : sum local = 3.02214e-11, global = -1.76953e-12, cumulative = 3.22883e-11
ExecutionTime = 1.41 s  ClockTime = 1 s

Time = 0.056

Courant Number mean: 0.379644 max: 0.616788
smoothSolver:  Solving for Ux, Initial residual = 0.00184426, Final residual = 3.43115e-07, No Iterations 2
smoothSolver:  Solving for Uy, Initial residual = 0.00508183, Final residual = 3.81794e-06, No Iterations 2
DICPCG:  Solving for p, Initial residual = 0.0213591, Final residual = 9.93726e-07, No Iterations 64
time step continuity errors : sum local = 3.29609e-11, global = -1.94314e-12, cumulative = 3.03451e-11
DICPCG:  Solving for p, Initial residual = 0.00209022, Final residual = 8.9494e-07, No Iterations 46
time step continuity errors : sum local = 2.94334e-11, global = -1.75597e-12, cumulative = 2.85892e-11
ExecutionTime = 1.43 s  ClockTime = 1 s

Time = 0.057

Courant Number mean: 0.379601 max: 0.616669
smoothSolver:  Solving for Ux, Initial residual = 0.00180598, Final residual = 3.3453e-07, No Iterations 2
smoothSolver:  Solving for Uy, Initial residual = 0.00501661, Final residual = 3.72226e-06, No Iterations 2
DICPCG:  Solving for p, Initial residual = 0.0223862, Final residual = 8.68966e-07, No Iterations 67
time step continuity errors : sum local = 2.85868e-11, global = -1.24324e-12, cumulative = 2.73459e-11
DICPCG:  Solving for p, Initial residual = 0.00217749, Final residual = 9.79821e-07, No Iterations 46
time step continuity errors : sum local = 3.2522e-11, global = -2.97161e-12, cumulative = 2.43743e-11
ExecutionTime = 1.46 s  ClockTime = 1 s

Time = 0.058

Courant Number mean: 0.379559 max: 0.616342
smoothSolver:  Solving for Ux, Initial residual = 0.00177152, Final residual = 3.2817e-07, No Iterations 2
smoothSolver:  Solving for Uy, Initial residual = 0.00497796, Final residual = 3.57764e-06, No Iterations 2
DICPCG:  Solving for p, Initial residual = 0.0228403, Final residual = 7.83981e-07, No Iterations 69
time step continuity errors : sum local = 2.60373e-11, global = 1.54932e-13, cumulative = 2.45292e-11
DICPCG:  Solving for p, Initial residual = 0.00229782, Final residual = 9.15181e-07, No Iterations 49
time step continuity errors : sum local = 2.92096e-11, global = -7.51499e-13, cumulative = 2.37777e-11
ExecutionTime = 1.48 s  ClockTime = 1 s

Time = 0.059

Courant Number mean: 0.379516 max: 0.616144
smoothSolver:  Solving for Ux, Initial residual = 0.00174149, Final residual = 3.25538e-07, No Iterations 2
smoothSolver:  Solving for Uy, Initial residual = 0.00480917, Final residual = 3.33425e-06, No Iterations 2
DICPCG:  Solving for p, Initial residual = 0.0227611, Final residual = 9.61152e-07, No Iterations 66
time step continuity errors : sum local = 3.06873e-11, global = -1.76883e-12, cumulative = 2.20089e-11
DICPCG:  Solving for p, Initial residual = 0.00218109, Final residual = 9.73119e-07, No Iterations 46
time step continuity errors : sum local = 3.15158e-11, global = -2.70114e-12, cumulative = 1.93078e-11
ExecutionTime = 1.51 s  ClockTime = 1 s

Time = 0.06

Courant Number mean: 0.379475 max: 0.615975
smoothSolver:  Solving for Ux, Initial residual = 0.00170868, Final residual = 3.17321e-07, No Iterations 2
smoothSolver:  Solving for Uy, Initial residual = 0.00474914, Final residual = 3.23136e-06, No Iterations 2
DICPCG:  Solving for p, Initial residual = 0.0232141, Final residual = 9.69033e-07, No Iterations 68
time step continuity errors : sum local = 3.14117e-11, global = 2.05158e-13, cumulative = 1.95129e-11
DICPCG:  Solving for p, Initial residual = 0.00227754, Final residual = 9.47012e-07, No Iterations 48
time step continuity errors : sum local = 2.95135e-11, global = -9.89652e-13, cumulative = 1.85233e-11
ExecutionTime = 1.54 s  ClockTime = 1 s

Time = 0.061

Courant Number mean: 0.379433 max: 0.61565
smoothSolver:  Solving for Ux, Initial residual = 0.00167699, Final residual = 3.09563e-07, No Iterations 2
smoothSolver:  Solving for Uy, Initial residual = 0.0046159, Final residual = 3.18432e-06, No Iterations 2
DICPCG:  Solving for p, Initial residual = 0.0236751, Final residual = 7.66987e-07, No Iterations 62
time step continuity errors : sum local = 2.39099e-11, global = 4.86391e-13, cumulative = 1.90097e-11
DICPCG:  Solving for p, Initial residual = 0.00220094, Final residual = 8.87094e-07, No Iterations 44
time step continuity errors : sum local = 2.72524e-11, global = -1.74169e-12, cumulative = 1.7268e-11
ExecutionTime = 1.57 s  ClockTime = 1 s

Time = 0.062

Courant Number mean: 0.379393 max: 0.615232
smoothSolver:  Solving for Ux, Initial residual = 0.00164775, Final residual = 2.98986e-07, No Iterations 2
smoothSolver:  Solving for Uy, Initial residual = 0.00456362, Final residual = 3.20717e-06, No Iterations 2
DICPCG:  Solving for p, Initial residual = 0.022438, Final residual = 9.77078e-07, No Iterations 68
time step continuity errors : sum local = 3.00267e-11, global = 3.57761e-13, cumulative = 1.76257e-11
DICPCG:  Solving for p, Initial residual = 0.00220395, Final residual = 9.60305e-07, No Iterations 44
time step continuity errors : sum local = 2.97968e-11, global = -2.54635e-12, cumulative = 1.50794e-11
ExecutionTime = 1.59 s  ClockTime = 1 s

Time = 0.063

Courant Number mean: 0.379354 max: 0.6148
smoothSolver:  Solving for Ux, Initial residual = 0.00162061, Final residual = 2.88054e-07, No Iterations 2
smoothSolver:  Solving for Uy, Initial residual = 0.00451459, Final residual = 3.23421e-06, No Iterations 2
DICPCG:  Solving for p, Initial residual = 0.0219177, Final residual = 8.15818e-07, No Iterations 68
time step continuity errors : sum local = 2.52865e-11, global = -2.4472e-13, cumulative = 1.48347e-11
DICPCG:  Solving for p, Initial residual = 0.00223531, Final residual = 8.93235e-07, No Iterations 47
time step continuity errors : sum local = 2.68271e-11, global = 4.37773e-12, cumulative = 1.92124e-11
ExecutionTime = 1.62 s  ClockTime = 1 s

Time = 0.064

Courant Number mean: 0.379314 max: 0.614427
smoothSolver:  Solving for Ux, Initial residual = 0.0015929, Final residual = 2.82672e-07, No Iterations 2
smoothSolver:  Solving for Uy, Initial residual = 0.0043911, Final residual = 3.14756e-06, No Iterations 2
DICPCG:  Solving for p, Initial residual = 0.0219851, Final residual = 8.66569e-07, No Iterations 67
time step continuity errors : sum local = 2.59854e-11, global = 3.4665e-13, cumulative = 1.95591e-11
DICPCG:  Solving for p, Initial residual = 0.00210615, Final residual = 9.6811e-07, No Iterations 49
time step continuity errors : sum local = 2.91666e-11, global = 4.90703e-12, cumulative = 2.44661e-11
ExecutionTime = 1.64 s  ClockTime = 1 s

Time = 0.065

Courant Number mean: 0.379274 max: 0.614639
smoothSolver:  Solving for Ux, Initial residual = 0.00156349, Final residual = 2.78714e-07, No Iterations 2
smoothSolver:  Solving for Uy, Initial residual = 0.00436922, Final residual = 3.06642e-06, No Iterations 2
DICPCG:  Solving for p, Initial residual = 0.0224466, Final residual = 9.97979e-07, No Iterations 67
time step continuity errors : sum local = 3.00309e-11, global = 1.10626e-12, cumulative = 2.55723e-11
DICPCG:  Solving for p, Initial residual = 0.00211333, Final residual = 9.20679e-07, No Iterations 50
time step continuity errors : sum local = 2.82824e-11, global = 4.27078e-12, cumulative = 2.98431e-11
ExecutionTime = 1.67 s  ClockTime = 1 s

Time = 0.066

Courant Number mean: 0.379235 max: 0.614996
smoothSolver:  Solving for Ux, Initial residual = 0.00153775, Final residual = 2.76722e-07, No Iterations 2
smoothSolver:  Solving for Uy, Initial residual = 0.00437719, Final residual = 2.97516e-06, No Iterations 2
DICPCG:  Solving for p, Initial residual = 0.0221537, Final residual = 8.3218e-07, No Iterations 68
time step continuity errors : sum local = 2.55379e-11, global = 1.32873e-12, cumulative = 3.11719e-11
DICPCG:  Solving for p, Initial residual = 0.00221014, Final residual = 9.67579e-07, No Iterations 50
time step continuity errors : sum local = 2.92028e-11, global = 4.67203e-12, cumulative = 3.58439e-11
ExecutionTime = 1.7 s  ClockTime = 1 s

Time = 0.067

Courant Number mean: 0.379196 max: 0.615408
smoothSolver:  Solving for Ux, Initial residual = 0.0015152, Final residual = 2.72767e-07, No Iterations 2
smoothSolver:  Solving for Uy, Initial residual = 0.00429643, Final residual = 2.8562e-06, No Iterations 2
DICPCG:  Solving for p, Initial residual = 0.0237929, Final residual = 9.61375e-07, No Iterations 70
time step continuity errors : sum local = 2.90696e-11, global = 4.913e-14, cumulative = 3.5893e-11
DICPCG:  Solving for p, Initial residual = 0.00210488, Final residual = 9.71327e-07, No Iterations 50
time step continuity errors : sum local = 3.12677e-11, global = 4.26282e-12, cumulative = 4.01558e-11
ExecutionTime = 1.72 s  ClockTime = 1 s

Time = 0.068

Courant Number mean: 0.379159 max: 0.615799
smoothSolver:  Solving for Ux, Initial residual = 0.00148994, Final residual = 2.64678e-07, No Iterations 2
smoothSolver:  Solving for Uy, Initial residual = 0.00437401, Final residual = 2.92445e-06, No Iterations 2
DICPCG:  Solving for p, Initial residual = 0.0218065, Final residual = 8.20724e-07, No Iterations 72
time step continuity errors : sum local = 2.64041e-11, global = -5.69711e-13, cumulative = 3.95861e-11
DICPCG:  Solving for p, Initial residual = 0.00220804, Final residual = 9.99052e-07, No Iterations 50
time step continuity errors : sum local = 3.02729e-11, global = 4.31808e-12, cumulative = 4.39042e-11
ExecutionTime = 1.75 s  ClockTime = 1 s

Time = 0.069

Courant Number mean: 0.379122 max: 0.61609
smoothSolver:  Solving for Ux, Initial residual = 0.00146419, Final residual = 2.57589e-07, No Iterations 2
smoothSolver:  Solving for Uy, Initial residual = 0.00422327, Final residual = 2.88817e-06, No Iterations 2
DICPCG:  Solving for p, Initial residual = 0.0223112, Final residual = 9.53104e-07, No Iterations 64
time step continuity errors : sum local = 2.8888e-11, global = -1.39437e-13, cumulative = 4.37648e-11
DICPCG:  Solving for p, Initial residual = 0.00204555, Final residual = 9.11459e-07, No Iterations 47
time step continuity errors : sum local = 2.77406e-11, global = 4.90651e-12, cumulative = 4.86713e-11
ExecutionTime = 1.78 s  ClockTime = 1 s

Time = 0.07

Courant Number mean: 0.379086 max: 0.616231
smoothSolver:  Solving for Ux, Initial residual = 0.00144223, Final residual = 2.46938e-07, No Iterations 2
smoothSolver:  Solving for Uy, Initial residual = 0.00421097, Final residual = 2.90215e-06, No Iterations 2
DICPCG:  Solving for p, Initial residual = 0.0209274, Final residual = 8.96317e-07, No Iterations 68
time step continuity errors : sum local = 2.73045e-11, global = 5.3762e-13, cumulative = 4.92089e-11
DICPCG:  Solving for p, Initial residual = 0.00197155, Final residual = 9.03571e-07, No Iterations 42
time step continuity errors : sum local = 2.7883e-11, global = -1.96723e-12, cumulative = 4.72417e-11
ExecutionTime = 1.8 s  ClockTime = 1 s

Time = 0.071

Courant Number mean: 0.379051 max: 0.616204
smoothSolver:  Solving for Ux, Initial residual = 0.00142229, Final residual = 2.36933e-07, No Iterations 2
smoothSolver:  Solving for Uy, Initial residual = 0.00417066, Final residual = 2.88365e-06, No Iterations 2
DICPCG:  Solving for p, Initial residual = 0.0205452, Final residual = 8.50258e-07, No Iterations 67
time step continuity errors : sum local = 2.62417e-11, global = 7.02479e-13, cumulative = 4.79441e-11
DICPCG:  Solving for p, Initial residual = 0.00210103, Final residual = 9.81774e-07, No Iterations 46
time step continuity errors : sum local = 2.9407e-11, global = -6.99005e-13, cumulative = 4.72451e-11
ExecutionTime = 1.82 s  ClockTime = 1 s

Time = 0.072

Courant Number mean: 0.379016 max: 0.616015
smoothSolver:  Solving for Ux, Initial residual = 0.00140044, Final residual = 2.3322e-07, No Iterations 2
smoothSolver:  Solving for Uy, Initial residual = 0.00405191, Final residual = 2.76521e-06, No Iterations 2
DICPCG:  Solving for p, Initial residual = 0.0205754, Final residual = 8.61597e-07, No Iterations 65
time step continuity errors : sum local = 2.5817e-11, global = 2.11548e-13, cumulative = 4.74567e-11
DICPCG:  Solving for p, Initial residual = 0.00204469, Final residual = 9.69722e-07, No Iterations 46
time step continuity errors : sum local = 2.89811e-11, global = -1.62818e-12, cumulative = 4.58285e-11
ExecutionTime = 1.86 s  ClockTime = 2 s

Time = 0.073

Courant Number mean: 0.37898 max: 0.615708
smoothSolver:  Solving for Ux, Initial residual = 0.00137726, Final residual = 2.31547e-07, No Iterations 2
smoothSolver:  Solving for Uy, Initial residual = 0.00399811, Final residual = 2.64709e-06, No Iterations 2
DICPCG:  Solving for p, Initial residual = 0.0214587, Final residual = 8.43778e-07, No Iterations 60
time step continuity errors : sum local = 2.5215e-11, global = 3.21943e-13, cumulative = 4.61504e-11
DICPCG:  Solving for p, Initial residual = 0.00203855, Final residual = 9.59478e-07, No Iterations 46
time step continuity errors : sum local = 2.84912e-11, global = -2.02859e-12, cumulative = 4.41219e-11
ExecutionTime = 1.88 s  ClockTime = 2 s

Time = 0.074

Courant Number mean: 0.378945 max: 0.615648
smoothSolver:  Solving for Ux, Initial residual = 0.00135584, Final residual = 2.29819e-07, No Iterations 2
smoothSolver:  Solving for Uy, Initial residual = 0.00396619, Final residual = 2.52038e-06, No Iterations 2
DICPCG:  Solving for p, Initial residual = 0.0211049, Final residual = 7.33122e-07, No Iterations 59
time step continuity errors : sum local = 2.17664e-11, global = 9.22876e-13, cumulative = 4.50447e-11
DICPCG:  Solving for p, Initial residual = 0.00209431, Final residual = 9.06607e-07, No Iterations 45
time step continuity errors : sum local = 2.65356e-11, global = -1.91207e-12, cumulative = 4.31327e-11
ExecutionTime = 1.91 s  ClockTime = 2 s

Time = 0.075

Courant Number mean: 0.378909 max: 0.615462
smoothSolver:  Solving for Ux, Initial residual = 0.00133846, Final residual = 2.26254e-07, No Iterations 2
smoothSolver:  Solving for Uy, Initial residual = 0.00389864, Final residual = 2.45254e-06, No Iterations 2
DICPCG:  Solving for p, Initial residual = 0.021373, Final residual = 8.74057e-07, No Iterations 70
time step continuity errors : sum local = 2.56218e-11, global = -1.5627e-12, cumulative = 4.157e-11
DICPCG:  Solving for p, Initial residual = 0.00208635, Final residual = 8.65767e-07, No Iterations 46
time step continuity errors : sum local = 2.53666e-11, global = -1.83538e-12, cumulative = 3.97346e-11
ExecutionTime = 1.93 s  ClockTime = 2 s

Time = 0.076

Courant Number mean: 0.378873 max: 0.615187
smoothSolver:  Solving for Ux, Initial residual = 0.00132063, Final residual = 2.21649e-07, No Iterations 2
smoothSolver:  Solving for Uy, Initial residual = 0.00382486, Final residual = 2.43222e-06, No Iterations 2
DICPCG:  Solving for p, Initial residual = 0.0220846, Final residual = 9.03644e-07, No Iterations 64
time step continuity errors : sum local = 2.64883e-11, global = 3.70708e-12, cumulative = 4.34417e-11
DICPCG:  Solving for p, Initial residual = 0.00208816, Final residual = 9.33498e-07, No Iterations 41
time step continuity errors : sum local = 2.68438e-11, global = -2.89056e-12, cumulative = 4.05511e-11
ExecutionTime = 1.95 s  ClockTime = 2 s

Time = 0.077

Courant Number mean: 0.378838 max: 0.614875
smoothSolver:  Solving for Ux, Initial residual = 0.00130025, Final residual = 2.14945e-07, No Iterations 2
smoothSolver:  Solving for Uy, Initial residual = 0.00373883, Final residual = 2.42422e-06, No Iterations 2
DICPCG:  Solving for p, Initial residual = 0.0219455, Final residual = 9.19025e-07, No Iterations 69
time step continuity errors : sum local = 2.64014e-11, global = 1.73904e-12, cumulative = 4.22901e-11
DICPCG:  Solving for p, Initial residual = 0.00205648, Final residual = 9.4953e-07, No Iterations 45
time step continuity errors : sum local = 2.65417e-11, global = 4.97497e-12, cumulative = 4.72651e-11
ExecutionTime = 1.98 s  ClockTime = 2 s

Time = 0.078

Courant Number mean: 0.378803 max: 0.614581
smoothSolver:  Solving for Ux, Initial residual = 0.00128094, Final residual = 2.06823e-07, No Iterations 2
smoothSolver:  Solving for Uy, Initial residual = 0.00371908, Final residual = 2.41059e-06, No Iterations 2
DICPCG:  Solving for p, Initial residual = 0.0207012, Final residual = 9.66686e-07, No Iterations 65
time step continuity errors : sum local = 2.70255e-11, global = -3.46242e-13, cumulative = 4.69189e-11
DICPCG:  Solving for p, Initial residual = 0.00192965, Final residual = 9.95538e-07, No Iterations 46
time step continuity errors : sum local = 2.80944e-11, global = 4.73129e-12, cumulative = 5.16502e-11
ExecutionTime = 2 s  ClockTime = 2 s

Time = 0.079

Courant Number mean: 0.378769 max: 0.61454
smoothSolver:  Solving for Ux, Initial residual = 0.00126478, Final residual = 1.99441e-07, No Iterations 2
smoothSolver:  Solving for Uy, Initial residual = 0.00370309, Final residual = 2.39442e-06, No Iterations 2
DICPCG:  Solving for p, Initial residual = 0.0202264, Final residual = 9.15166e-07, No Iterations 66
time step continuity errors : sum local = 2.58321e-11, global = 2.29288e-14, cumulative = 5.16731e-11
DICPCG:  Solving for p, Initial residual = 0.00190809, Final residual = 9.47851e-07, No Iterations 49
time step continuity errors : sum local = 2.71055e-11, global = 3.58063e-12, cumulative = 5.52537e-11
ExecutionTime = 2.03 s  ClockTime = 2 s

Time = 0.08

Courant Number mean: 0.378736 max: 0.614756
smoothSolver:  Solving for Ux, Initial residual = 0.0012488, Final residual = 1.95918e-07, No Iterations 2
smoothSolver:  Solving for Uy, Initial residual = 0.00365555, Final residual = 2.35541e-06, No Iterations 2
DICPCG:  Solving for p, Initial residual = 0.020267, Final residual = 9.79181e-07, No Iterations 67
time step continuity errors : sum local = 2.79781e-11, global = 1.60411e-12, cumulative = 5.68578e-11
DICPCG:  Solving for p, Initial residual = 0.00207773, Final residual = 9.65265e-07, No Iterations 49
time step continuity errors : sum local = 2.69798e-11, global = 4.23734e-12, cumulative = 6.10952e-11
ExecutionTime = 2.06 s  ClockTime = 2 s

Time = 0.081

Courant Number mean: 0.378703 max: 0.615042
smoothSolver:  Solving for Ux, Initial residual = 0.0012308, Final residual = 1.94239e-07, No Iterations 2
smoothSolver:  Solving for Uy, Initial residual = 0.00357787, Final residual = 2.27684e-06, No Iterations 2
DICPCG:  Solving for p, Initial residual = 0.0210938, Final residual = 8.40006e-07, No Iterations 67
time step continuity errors : sum local = 2.34472e-11, global = 2.36407e-13, cumulative = 6.13316e-11
DICPCG:  Solving for p, Initial residual = 0.00190982, Final residual = 8.89575e-07, No Iterations 50
time step continuity errors : sum local = 2.52697e-11, global = 2.60835e-12, cumulative = 6.39399e-11
ExecutionTime = 2.08 s  ClockTime = 2 s

Time = 0.082

Courant Number mean: 0.378671 max: 0.615349
smoothSolver:  Solving for Ux, Initial residual = 0.00121154, Final residual = 1.91625e-07, No Iterations 2
smoothSolver:  Solving for Uy, Initial residual = 0.00356907, Final residual = 2.23718e-06, No Iterations 2
DICPCG:  Solving for p, Initial residual = 0.0205208, Final residual = 8.89625e-07, No Iterations 65
time step continuity errors : sum local = 2.52149e-11, global = -3.85178e-13, cumulative = 6.35548e-11
DICPCG:  Solving for p, Initial residual = 0.00190545, Final residual = 9.54513e-07, No Iterations 50
time step continuity errors : sum local = 2.71177e-11, global = 3.2344e-12, cumulative = 6.67891e-11
ExecutionTime = 2.12 s  ClockTime = 2 s

Time = 0.083

Courant Number mean: 0.378638 max: 0.615623
smoothSolver:  Solving for Ux, Initial residual = 0.00119504, Final residual = 1.88121e-07, No Iterations 2
smoothSolver:  Solving for Uy, Initial residual = 0.0035834, Final residual = 2.22826e-06, No Iterations 2
DICPCG:  Solving for p, Initial residual = 0.019676, Final residual = 9.21379e-07, No Iterations 66
time step continuity errors : sum local = 2.61491e-11, global = 7.16282e-13, cumulative = 6.75054e-11
DICPCG:  Solving for p, Initial residual = 0.00179129, Final residual = 9.87323e-07, No Iterations 49
time step continuity errors : sum local = 2.85295e-11, global = 2.93025e-12, cumulative = 7.04357e-11
ExecutionTime = 2.14 s  ClockTime = 2 s

Time = 0.084

Courant Number mean: 0.378606 max: 0.61582
smoothSolver:  Solving for Ux, Initial residual = 0.00118119, Final residual = 1.83943e-07, No Iterations 2
smoothSolver:  Solving for Uy, Initial residual = 0.00358381, Final residual = 2.2533e-06, No Iterations 2
DICPCG:  Solving for p, Initial residual = 0.0197175, Final residual = 9.85454e-07, No Iterations 66
time step continuity errors : sum local = 2.85011e-11, global = -1.53667e-12, cumulative = 6.8899e-11
DICPCG:  Solving for p, Initial residual = 0.00186661, Final residual = 9.63521e-07, No Iterations 39
time step continuity errors : sum local = 2.83693e-11, global = 2.62924e-12, cumulative = 7.15282e-11
ExecutionTime = 2.17 s  ClockTime = 2 s

Time = 0.085

Courant Number mean: 0.378575 max: 0.615911
smoothSolver:  Solving for Ux, Initial residual = 0.0011664, Final residual = 1.78938e-07, No Iterations 2
smoothSolver:  Solving for Uy, Initial residual = 0.00357512, Final residual = 2.26758e-06, No Iterations 2
DICPCG:  Solving for p, Initial residual = 0.0203801, Final residual = 8.71644e-07, No Iterations 68
time step continuity errors : sum local = 2.56178e-11, global = 1.54439e-12, cumulative = 7.30726e-11
DICPCG:  Solving for p, Initial residual = 0.00201562, Final residual = 9.48881e-07, No Iterations 38
time step continuity errors : sum local = 2.69918e-11, global = -5.78402e-12, cumulative = 6.72886e-11
ExecutionTime = 2.19 s  ClockTime = 2 s

Time = 0.086

Courant Number mean: 0.378546 max: 0.615884
smoothSolver:  Solving for Ux, Initial residual = 0.00114978, Final residual = 1.73546e-07, No Iterations 2
smoothSolver:  Solving for Uy, Initial residual = 0.00346452, Final residual = 2.22118e-06, No Iterations 2
DICPCG:  Solving for p, Initial residual = 0.019892, Final residual = 7.931e-07, No Iterations 69
time step continuity errors : sum local = 2.25367e-11, global = 7.17882e-13, cumulative = 6.80065e-11
DICPCG:  Solving for p, Initial residual = 0.00196737, Final residual = 9.88126e-07, No Iterations 43
time step continuity errors : sum local = 2.70536e-11, global = -1.49811e-12, cumulative = 6.65084e-11
ExecutionTime = 2.22 s  ClockTime = 2 s

Time = 0.087

Courant Number mean: 0.378515 max: 0.615749
smoothSolver:  Solving for Ux, Initial residual = 0.00113415, Final residual = 1.70821e-07, No Iterations 2
smoothSolver:  Solving for Uy, Initial residual = 0.00343429, Final residual = 2.15243e-06, No Iterations 2
DICPCG:  Solving for p, Initial residual = 0.0202962, Final residual = 8.69238e-07, No Iterations 70
time step continuity errors : sum local = 2.37734e-11, global = 2.94996e-14, cumulative = 6.65379e-11
DICPCG:  Solving for p, Initial residual = 0.0018612, Final residual = 9.61089e-07, No Iterations 48
time step continuity errors : sum local = 2.65959e-11, global = -7.98326e-13, cumulative = 6.57396e-11
ExecutionTime = 2.24 s  ClockTime = 2 s

Time = 0.088

Courant Number mean: 0.378485 max: 0.615538
smoothSolver:  Solving for Ux, Initial residual = 0.00112002, Final residual = 1.68938e-07, No Iterations 2
smoothSolver:  Solving for Uy, Initial residual = 0.00340211, Final residual = 2.08034e-06, No Iterations 2
DICPCG:  Solving for p, Initial residual = 0.0200313, Final residual = 8.60441e-07, No Iterations 65
time step continuity errors : sum local = 2.383e-11, global = -1.24622e-12, cumulative = 6.44933e-11
DICPCG:  Solving for p, Initial residual = 0.00183508, Final residual = 9.81243e-07, No Iterations 48
time step continuity errors : sum local = 2.75217e-11, global = -7.37582e-13, cumulative = 6.37558e-11
ExecutionTime = 2.26 s  ClockTime = 2 s

Time = 0.089

Courant Number mean: 0.378455 max: 0.615347
smoothSolver:  Solving for Ux, Initial residual = 0.0011078, Final residual = 1.67878e-07, No Iterations 2
smoothSolver:  Solving for Uy, Initial residual = 0.00336274, Final residual = 2.0034e-06, No Iterations 2
DICPCG:  Solving for p, Initial residual = 0.0197378, Final residual = 8.51744e-07, No Iterations 69
time step continuity errors : sum local = 2.38726e-11, global = 6.11676e-13, cumulative = 6.43674e-11
DICPCG:  Solving for p, Initial residual = 0.0020368, Final residual = 9.83375e-07, No Iterations 49
time step continuity errors : sum local = 2.62989e-11, global = -4.78756e-13, cumulative = 6.38887e-11
ExecutionTime = 2.28 s  ClockTime = 2 s

Time = 0.09

Courant Number mean: 0.378426 max: 0.615202
smoothSolver:  Solving for Ux, Initial residual = 0.0010943, Final residual = 1.65803e-07, No Iterations 2
smoothSolver:  Solving for Uy, Initial residual = 0.00325397, Final residual = 1.91352e-06, No Iterations 2
DICPCG:  Solving for p, Initial residual = 0.0210454, Final residual = 7.79147e-07, No Iterations 67
time step continuity errors : sum local = 2.08041e-11, global = -1.26952e-12, cumulative = 6.26192e-11
DICPCG:  Solving for p, Initial residual = 0.00188745, Final residual = 9.08055e-07, No Iterations 42
time step continuity errors : sum local = 2.43414e-11, global = -1.82964e-12, cumulative = 6.07895e-11
ExecutionTime = 2.31 s  ClockTime = 2 s

Time = 0.091

Courant Number mean: 0.378396 max: 0.615006
smoothSolver:  Solving for Ux, Initial residual = 0.00107965, Final residual = 1.61997e-07, No Iterations 2
smoothSolver:  Solving for Uy, Initial residual = 0.00321198, Final residual = 1.8862e-06, No Iterations 2
DICPCG:  Solving for p, Initial residual = 0.0199072, Final residual = 9.09371e-07, No Iterations 64
time step continuity errors : sum local = 2.43571e-11, global = 1.00196e-13, cumulative = 6.08897e-11
DICPCG:  Solving for p, Initial residual = 0.00190347, Final residual = 8.83403e-07, No Iterations 42
time step continuity errors : sum local = 2.35481e-11, global = -1.07576e-12, cumulative = 5.9814e-11
ExecutionTime = 2.33 s  ClockTime = 2 s

Time = 0.092

Courant Number mean: 0.378366 max: 0.614794
smoothSolver:  Solving for Ux, Initial residual = 0.00106671, Final residual = 1.58018e-07, No Iterations 2
smoothSolver:  Solving for Uy, Initial residual = 0.00320949, Final residual = 1.87671e-06, No Iterations 2
DICPCG:  Solving for p, Initial residual = 0.0195546, Final residual = 8.12e-07, No Iterations 65
time step continuity errors : sum local = 2.16497e-11, global = 3.73792e-13, cumulative = 6.01877e-11
DICPCG:  Solving for p, Initial residual = 0.00180272, Final residual = 8.78078e-07, No Iterations 42
time step continuity errors : sum local = 2.35367e-11, global = 4.6314e-13, cumulative = 6.06509e-11
ExecutionTime = 2.35 s  ClockTime = 2 s

Time = 0.093

Courant Number mean: 0.378335 max: 0.614697
smoothSolver:  Solving for Ux, Initial residual = 0.00105567, Final residual = 1.54573e-07, No Iterations 2
smoothSolver:  Solving for Uy, Initial residual = 0.00319197, Final residual = 1.86524e-06, No Iterations 2
DICPCG:  Solving for p, Initial residual = 0.0195102, Final residual = 9.10748e-07, No Iterations 57
time step continuity errors : sum local = 2.4439e-11, global = -2.79854e-13, cumulative = 6.0371e-11
DICPCG:  Solving for p, Initial residual = 0.00182417, Final residual = 9.12832e-07, No Iterations 43
time step continuity errors : sum local = 2.42317e-11, global = 4.32278e-12, cumulative = 6.46938e-11
ExecutionTime = 2.38 s  ClockTime = 2 s

Time = 0.094

Courant Number mean: 0.378307 max: 0.614759
smoothSolver:  Solving for Ux, Initial residual = 0.00104384, Final residual = 9.99577e-06, No Iterations 1
smoothSolver:  Solving for Uy, Initial residual = 0.00311262, Final residual = 1.8313e-06, No Iterations 2
DICPCG:  Solving for p, Initial residual = 0.0204238, Final residual = 7.27495e-07, No Iterations 68
time step continuity errors : sum local = 1.93092e-11, global = 2.70696e-13, cumulative = 6.49645e-11
DICPCG:  Solving for p, Initial residual = 0.00190864, Final residual = 7.72337e-07, No Iterations 50
time step continuity errors : sum local = 2.05246e-11, global = 1.11172e-12, cumulative = 6.60762e-11
ExecutionTime = 2.4 s  ClockTime = 2 s

Time = 0.095

Courant Number mean: 0.37828 max: 0.614895
smoothSolver:  Solving for Ux, Initial residual = 0.00103014, Final residual = 9.86372e-06, No Iterations 1
smoothSolver:  Solving for Uy, Initial residual = 0.00305555, Final residual = 1.78349e-06, No Iterations 2
DICPCG:  Solving for p, Initial residual = 0.0198337, Final residual = 8.64566e-07, No Iterations 64
time step continuity errors : sum local = 2.29355e-11, global = -1.90373e-12, cumulative = 6.41725e-11
DICPCG:  Solving for p, Initial residual = 0.00187569, Final residual = 8.44297e-07, No Iterations 49
time step continuity errors : sum local = 2.23573e-11, global = 2.23773e-12, cumulative = 6.64102e-11
ExecutionTime = 2.43 s  ClockTime = 2 s

Time = 0.096

Courant Number mean: 0.378252 max: 0.615078
smoothSolver:  Solving for Ux, Initial residual = 0.00101604, Final residual = 9.73412e-06, No Iterations 1
smoothSolver:  Solving for Uy, Initial residual = 0.00299065, Final residual = 1.72127e-06, No Iterations 2
DICPCG:  Solving for p, Initial residual = 0.0194776, Final residual = 9.83919e-07, No Iterations 66
time step continuity errors : sum local = 2.6033e-11, global = -1.51892e-13, cumulative = 6.62583e-11
DICPCG:  Solving for p, Initial residual = 0.00183245, Final residual = 9.22299e-07, No Iterations 49
time step continuity errors : sum local = 2.44818e-11, global = 1.69723e-12, cumulative = 6.79556e-11
ExecutionTime = 2.45 s  ClockTime = 2 s

Time = 0.097

Courant Number mean: 0.378225 max: 0.615274
smoothSolver:  Solving for Ux, Initial residual = 0.00100411, Final residual = 9.59963e-06, No Iterations 1
smoothSolver:  Solving for Uy, Initial residual = 0.00300497, Final residual = 1.66576e-06, No Iterations 2
DICPCG:  Solving for p, Initial residual = 0.0200859, Final residual = 9.87403e-07, No Iterations 65
time step continuity errors : sum local = 2.62181e-11, global = 1.32143e-12, cumulative = 6.9277e-11
DICPCG:  Solving for p, Initial residual = 0.00183801, Final residual = 9.43976e-07, No Iterations 49
time step continuity errors : sum local = 2.57656e-11, global = 1.56194e-12, cumulative = 7.08389e-11
ExecutionTime = 2.48 s  ClockTime = 2 s

Time = 0.098

Courant Number mean: 0.378199 max: 0.61545
smoothSolver:  Solving for Ux, Initial residual = 0.000993651, Final residual = 9.48176e-06, No Iterations 1
smoothSolver:  Solving for Uy, Initial residual = 0.00302014, Final residual = 1.65958e-06, No Iterations 2
DICPCG:  Solving for p, Initial residual = 0.0197114, Final residual = 8.69729e-07, No Iterations 68
time step continuity errors : sum local = 2.37004e-11, global = 1.06921e-12, cumulative = 7.19082e-11
DICPCG:  Solving for p, Initial residual = 0.00190215, Final residual = 7.72801e-07, No Iterations 49
time step continuity errors : sum local = 2.0575e-11, global = 1.40151e-12, cumulative = 7.33097e-11
ExecutionTime = 2.51 s  ClockTime = 2 s

Time = 0.099

Courant Number mean: 0.378173 max: 0.615571
smoothSolver:  Solving for Ux, Initial residual = 0.000983741, Final residual = 9.38246e-06, No Iterations 1
smoothSolver:  Solving for Uy, Initial residual = 0.00293339, Final residual = 1.65522e-06, No Iterations 2
DICPCG:  Solving for p, Initial residual = 0.0188764, Final residual = 8.95517e-07, No Iterations 61
time step continuity errors : sum local = 2.3822e-11, global = -7.30025e-13, cumulative = 7.25796e-11
DICPCG:  Solving for p, Initial residual = 0.00179933, Final residual = 8.85321e-07, No Iterations 48
time step continuity errors : sum local = 2.36366e-11, global = 1.60538e-12, cumulative = 7.4185e-11
ExecutionTime = 2.53 s  ClockTime = 2 s

Time = 0.1

Courant Number mean: 0.378148 max: 0.61562
smoothSolver:  Solving for Ux, Initial residual = 0.00097194, Final residual = 9.25309e-06, No Iterations 1
smoothSolver:  Solving for Uy, Initial residual = 0.002906, Final residual = 1.671e-06, No Iterations 2
DICPCG:  Solving for p, Initial residual = 0.0183485, Final residual = 8.52243e-07, No Iterations 61
time step continuity errors : sum local = 2.27135e-11, global = -9.07474e-13, cumulative = 7.32776e-11
DICPCG:  Solving for p, Initial residual = 0.00178826, Final residual = 9.18447e-07, No Iterations 47
time step continuity errors : sum local = 2.46274e-11, global = 2.15185e-12, cumulative = 7.54294e-11
ExecutionTime = 2.59 s  ClockTime = 2 s

Time = 0.101

Courant Number mean: 0.378122 max: 0.61559
smoothSolver:  Solving for Ux, Initial residual = 0.000959981, Final residual = 9.10999e-06, No Iterations 1
smoothSolver:  Solving for Uy, Initial residual = 0.00291799, Final residual = 1.67815e-06, No Iterations 2
DICPCG:  Solving for p, Initial residual = 0.0182003, Final residual = 8.57547e-07, No Iterations 64
time step continuity errors : sum local = 2.29792e-11, global = 3.62441e-13, cumulative = 7.57918e-11
DICPCG:  Solving for p, Initial residual = 0.00180747, Final residual = 8.48644e-07, No Iterations 35
time step continuity errors : sum local = 2.29143e-11, global = -1.22249e-12, cumulative = 7.45693e-11
ExecutionTime = 2.61 s  ClockTime = 2 s

Time = 0.102

Courant Number mean: 0.378095 max: 0.615486
smoothSolver:  Solving for Ux, Initial residual = 0.000947969, Final residual = 8.97607e-06, No Iterations 1
smoothSolver:  Solving for Uy, Initial residual = 0.0029437, Final residual = 1.66745e-06, No Iterations 2
DICPCG:  Solving for p, Initial residual = 0.018346, Final residual = 8.446e-07, No Iterations 68
time step continuity errors : sum local = 2.27917e-11, global = 1.43286e-12, cumulative = 7.60022e-11
DICPCG:  Solving for p, Initial residual = 0.0019324, Final residual = 9.05931e-07, No Iterations 43
time step continuity errors : sum local = 2.37417e-11, global = -1.04692e-13, cumulative = 7.58975e-11
ExecutionTime = 2.64 s  ClockTime = 2 s

Time = 0.103

Courant Number mean: 0.378068 max: 0.615324
smoothSolver:  Solving for Ux, Initial residual = 0.000937371, Final residual = 8.88739e-06, No Iterations 1
smoothSolver:  Solving for Uy, Initial residual = 0.00287657, Final residual = 1.60666e-06, No Iterations 2
DICPCG:  Solving for p, Initial residual = 0.0180451, Final residual = 8.08881e-07, No Iterations 55
time step continuity errors : sum local = 2.11876e-11, global = 5.94181e-13, cumulative = 7.64917e-11
DICPCG:  Solving for p, Initial residual = 0.00181503, Final residual = 9.65625e-07, No Iterations 46
time step continuity errors : sum local = 2.4994e-11, global = -9.98708e-13, cumulative = 7.5493e-11
ExecutionTime = 2.66 s  ClockTime = 2 s

Time = 0.104

Courant Number mean: 0.378039 max: 0.615136
smoothSolver:  Solving for Ux, Initial residual = 0.000927734, Final residual = 8.80548e-06, No Iterations 1
smoothSolver:  Solving for Uy, Initial residual = 0.00279755, Final residual = 1.54053e-06, No Iterations 2
DICPCG:  Solving for p, Initial residual = 0.0188183, Final residual = 8.15327e-07, No Iterations 70
time step continuity errors : sum local = 2.10987e-11, global = -5.49441e-13, cumulative = 7.49435e-11
DICPCG:  Solving for p, Initial residual = 0.00182036, Final residual = 9.80095e-07, No Iterations 48
time step continuity errors : sum local = 2.56336e-11, global = -2.23894e-12, cumulative = 7.27046e-11
ExecutionTime = 2.68 s  ClockTime = 2 s

Time = 0.105

Courant Number mean: 0.378013 max: 0.615006
smoothSolver:  Solving for Ux, Initial residual = 0.00091703, Final residual = 8.71011e-06, No Iterations 1
smoothSolver:  Solving for Uy, Initial residual = 0.00275929, Final residual = 1.47224e-06, No Iterations 2
DICPCG:  Solving for p, Initial residual = 0.0192071, Final residual = 9.87268e-07, No Iterations 68
time step continuity errors : sum local = 2.57986e-11, global = 2.03932e-12, cumulative = 7.47439e-11
DICPCG:  Solving for p, Initial residual = 0.00187233, Final residual = 8.47024e-07, No Iterations 45
time step continuity errors : sum local = 2.17218e-11, global = -4.04491e-13, cumulative = 7.43394e-11
ExecutionTime = 2.7 s  ClockTime = 2 s

Time = 0.106

Courant Number mean: 0.377988 max: 0.614834
smoothSolver:  Solving for Ux, Initial residual = 0.000905979, Final residual = 8.59899e-06, No Iterations 1
smoothSolver:  Solving for Uy, Initial residual = 0.00270512, Final residual = 1.40851e-06, No Iterations 2
DICPCG:  Solving for p, Initial residual = 0.0192292, Final residual = 7.60916e-07, No Iterations 70
time step continuity errors : sum local = 1.95134e-11, global = -8.56756e-13, cumulative = 7.34827e-11
DICPCG:  Solving for p, Initial residual = 0.00180669, Final residual = 9.71207e-07, No Iterations 44
time step continuity errors : sum local = 2.56847e-11, global = 1.16128e-13, cumulative = 7.35988e-11
ExecutionTime = 2.73 s  ClockTime = 2 s

Time = 0.107

Courant Number mean: 0.377966 max: 0.614651
smoothSolver:  Solving for Ux, Initial residual = 0.000898075, Final residual = 8.47727e-06, No Iterations 1
smoothSolver:  Solving for Uy, Initial residual = 0.00279078, Final residual = 1.43254e-06, No Iterations 2
DICPCG:  Solving for p, Initial residual = 0.0183357, Final residual = 9.80129e-07, No Iterations 68
time step continuity errors : sum local = 2.58843e-11, global = 1.21393e-12, cumulative = 7.48127e-11
DICPCG:  Solving for p, Initial residual = 0.00189349, Final residual = 9.34761e-07, No Iterations 42
time step continuity errors : sum local = 2.35205e-11, global = 4.54531e-12, cumulative = 7.9358e-11
ExecutionTime = 2.75 s  ClockTime = 3 s

Time = 0.108

Courant Number mean: 0.377943 max: 0.614601
smoothSolver:  Solving for Ux, Initial residual = 0.000890023, Final residual = 8.37958e-06, No Iterations 1
smoothSolver:  Solving for Uy, Initial residual = 0.00269162, Final residual = 1.41278e-06, No Iterations 2
DICPCG:  Solving for p, Initial residual = 0.0177677, Final residual = 9.31681e-07, No Iterations 63
time step continuity errors : sum local = 2.34106e-11, global = 1.74692e-12, cumulative = 8.1105e-11
DICPCG:  Solving for p, Initial residual = 0.00182671, Final residual = 9.78221e-07, No Iterations 43
time step continuity errors : sum local = 2.42397e-11, global = 3.93306e-12, cumulative = 8.5038e-11
ExecutionTime = 2.77 s  ClockTime = 3 s

Time = 0.109

Courant Number mean: 0.377918 max: 0.61462
smoothSolver:  Solving for Ux, Initial residual = 0.000882992, Final residual = 8.2972e-06, No Iterations 1
smoothSolver:  Solving for Uy, Initial residual = 0.00265281, Final residual = 1.40226e-06, No Iterations 2
DICPCG:  Solving for p, Initial residual = 0.0181376, Final residual = 7.52555e-07, No Iterations 62
time step continuity errors : sum local = 1.86208e-11, global = -5.89977e-13, cumulative = 8.44481e-11
DICPCG:  Solving for p, Initial residual = 0.00181241, Final residual = 9.95428e-07, No Iterations 47
time step continuity errors : sum local = 2.47943e-11, global = 1.29845e-12, cumulative = 8.57465e-11
ExecutionTime = 2.8 s  ClockTime = 3 s

Time = 0.11

Courant Number mean: 0.377893 max: 0.614703
[...]
DICPCG:  Solving for p, Initial residual = 3.84604e-05, Final residual = 9.62459e-07, No Iterations 35
time step continuity errors : sum local = 2.4361e-11, global = -3.35229e-12, cumulative = 6.88355e-10
ExecutionTime = 19.6 s  ClockTime = 21 s

Time = 0.974

Courant Number mean: 0.375436 max: 0.614173
smoothSolver:  Solving for Ux, Initial residual = 2.91325e-06, Final residual = 2.91325e-06, No Iterations 0
smoothSolver:  Solving for Uy, Initial residual = 4.01572e-05, Final residual = 4.83501e-07, No Iterations 1
DICPCG:  Solving for p, Initial residual = 3.52416e-05, Final residual = 9.18963e-07, No Iterations 33
time step continuity errors : sum local = 2.32661e-11, global = 3.42645e-12, cumulative = 6.91781e-10
DICPCG:  Solving for p, Initial residual = 3.81867e-05, Final residual = 9.66737e-07, No Iterations 35
time step continuity errors : sum local = 2.44707e-11, global = -3.333e-12, cumulative = 6.88448e-10
ExecutionTime = 19.61 s  ClockTime = 21 s

Time = 0.975

Courant Number mean: 0.375436 max: 0.614173
smoothSolver:  Solving for Ux, Initial residual = 2.89456e-06, Final residual = 2.89456e-06, No Iterations 0
smoothSolver:  Solving for Uy, Initial residual = 3.99057e-05, Final residual = 4.80485e-07, No Iterations 1
DICPCG:  Solving for p, Initial residual = 3.48393e-05, Final residual = 9.31222e-07, No Iterations 33
time step continuity errors : sum local = 2.35778e-11, global = 3.43424e-12, cumulative = 6.91883e-10
DICPCG:  Solving for p, Initial residual = 3.7933e-05, Final residual = 9.67692e-07, No Iterations 35
time step continuity errors : sum local = 2.44963e-11, global = -3.31265e-12, cumulative = 6.8857e-10
ExecutionTime = 19.63 s  ClockTime = 21 s

Time = 0.976

Courant Number mean: 0.375436 max: 0.614173
smoothSolver:  Solving for Ux, Initial residual = 2.87599e-06, Final residual = 2.87599e-06, No Iterations 0
smoothSolver:  Solving for Uy, Initial residual = 3.9653e-05, Final residual = 4.7743e-07, No Iterations 1
DICPCG:  Solving for p, Initial residual = 3.46187e-05, Final residual = 9.11285e-07, No Iterations 33
time step continuity errors : sum local = 2.30743e-11, global = 3.40416e-12, cumulative = 6.91974e-10
DICPCG:  Solving for p, Initial residual = 3.76769e-05, Final residual = 9.49594e-07, No Iterations 35
time step continuity errors : sum local = 2.40396e-11, global = -3.29016e-12, cumulative = 6.88684e-10
ExecutionTime = 19.65 s  ClockTime = 21 s

Time = 0.977

Courant Number mean: 0.375436 max: 0.614173
smoothSolver:  Solving for Ux, Initial residual = 2.85754e-06, Final residual = 2.85754e-06, No Iterations 0
smoothSolver:  Solving for Uy, Initial residual = 3.94019e-05, Final residual = 4.74405e-07, No Iterations 1
DICPCG:  Solving for p, Initial residual = 3.43953e-05, Final residual = 9.84402e-07, No Iterations 32
time step continuity errors : sum local = 2.49271e-11, global = 3.86093e-12, cumulative = 6.92545e-10
DICPCG:  Solving for p, Initial residual = 3.7307e-05, Final residual = 9.18578e-07, No Iterations 35
time step continuity errors : sum local = 2.32557e-11, global = -3.25997e-12, cumulative = 6.89285e-10
ExecutionTime = 19.66 s  ClockTime = 21 s

Time = 0.978

Courant Number mean: 0.375436 max: 0.614173
smoothSolver:  Solving for Ux, Initial residual = 2.8392e-06, Final residual = 2.8392e-06, No Iterations 0
smoothSolver:  Solving for Uy, Initial residual = 3.91523e-05, Final residual = 4.71406e-07, No Iterations 1
DICPCG:  Solving for p, Initial residual = 3.41691e-05, Final residual = 9.87604e-07, No Iterations 32
time step continuity errors : sum local = 2.50096e-11, global = 3.84141e-12, cumulative = 6.93126e-10
DICPCG:  Solving for p, Initial residual = 3.70727e-05, Final residual = 9.24978e-07, No Iterations 35
time step continuity errors : sum local = 2.34191e-11, global = -3.23963e-12, cumulative = 6.89887e-10
ExecutionTime = 19.68 s  ClockTime = 21 s

Time = 0.979

Courant Number mean: 0.375436 max: 0.614173
smoothSolver:  Solving for Ux, Initial residual = 2.82098e-06, Final residual = 2.82098e-06, No Iterations 0
smoothSolver:  Solving for Uy, Initial residual = 3.89049e-05, Final residual = 4.68422e-07, No Iterations 1
DICPCG:  Solving for p, Initial residual = 3.39662e-05, Final residual = 9.95281e-07, No Iterations 32
time step continuity errors : sum local = 2.52053e-11, global = 3.81748e-12, cumulative = 6.93704e-10
DICPCG:  Solving for p, Initial residual = 3.68367e-05, Final residual = 9.21092e-07, No Iterations 35
time step continuity errors : sum local = 2.3322e-11, global = -3.21911e-12, cumulative = 6.90485e-10
ExecutionTime = 19.7 s  ClockTime = 21 s

Time = 0.98

Courant Number mean: 0.375436 max: 0.614173
smoothSolver:  Solving for Ux, Initial residual = 2.80286e-06, Final residual = 2.80286e-06, No Iterations 0
smoothSolver:  Solving for Uy, Initial residual = 3.86586e-05, Final residual = 4.65456e-07, No Iterations 1
DICPCG:  Solving for p, Initial residual = 3.37708e-05, Final residual = 9.98504e-07, No Iterations 32
time step continuity errors : sum local = 2.52884e-11, global = 3.79768e-12, cumulative = 6.94283e-10
DICPCG:  Solving for p, Initial residual = 3.6605e-05, Final residual = 9.32814e-07, No Iterations 35
time step continuity errors : sum local = 2.36202e-11, global = -3.20111e-12, cumulative = 6.91082e-10
ExecutionTime = 19.72 s  ClockTime = 21 s

Time = 0.981

Courant Number mean: 0.375436 max: 0.614173
smoothSolver:  Solving for Ux, Initial residual = 2.78486e-06, Final residual = 2.78486e-06, No Iterations 0
smoothSolver:  Solving for Uy, Initial residual = 3.84134e-05, Final residual = 4.62506e-07, No Iterations 1
DICPCG:  Solving for p, Initial residual = 3.35772e-05, Final residual = 9.20149e-07, No Iterations 33
time step continuity errors : sum local = 2.33052e-11, global = 3.30847e-12, cumulative = 6.9439e-10
DICPCG:  Solving for p, Initial residual = 3.63802e-05, Final residual = 9.4458e-07, No Iterations 35
time step continuity errors : sum local = 2.39194e-11, global = -3.19336e-12, cumulative = 6.91197e-10
ExecutionTime = 19.73 s  ClockTime = 21 s

Time = 0.982

Courant Number mean: 0.375436 max: 0.614173
smoothSolver:  Solving for Ux, Initial residual = 2.76696e-06, Final residual = 2.76696e-06, No Iterations 0
smoothSolver:  Solving for Uy, Initial residual = 3.81695e-05, Final residual = 4.59572e-07, No Iterations 1
DICPCG:  Solving for p, Initial residual = 3.33306e-05, Final residual = 9.85071e-07, No Iterations 32
time step continuity errors : sum local = 2.49509e-11, global = 3.75049e-12, cumulative = 6.94947e-10
DICPCG:  Solving for p, Initial residual = 3.61223e-05, Final residual = 9.11856e-07, No Iterations 35
time step continuity errors : sum local = 2.30921e-11, global = -3.15837e-12, cumulative = 6.91789e-10
ExecutionTime = 19.75 s  ClockTime = 21 s

Time = 0.983

Courant Number mean: 0.375436 max: 0.614173
smoothSolver:  Solving for Ux, Initial residual = 2.74919e-06, Final residual = 2.74919e-06, No Iterations 0
smoothSolver:  Solving for Uy, Initial residual = 3.79276e-05, Final residual = 4.56664e-07, No Iterations 1
DICPCG:  Solving for p, Initial residual = 3.31668e-05, Final residual = 9.11524e-07, No Iterations 33
time step continuity errors : sum local = 2.30893e-11, global = 3.2731e-12, cumulative = 6.95062e-10
DICPCG:  Solving for p, Initial residual = 3.58617e-05, Final residual = 9.26675e-07, No Iterations 35
time step continuity errors : sum local = 2.34686e-11, global = -3.15e-12, cumulative = 6.91912e-10
ExecutionTime = 19.77 s  ClockTime = 21 s

Time = 0.984

Courant Number mean: 0.375436 max: 0.614173
smoothSolver:  Solving for Ux, Initial residual = 2.73157e-06, Final residual = 2.73157e-06, No Iterations 0
smoothSolver:  Solving for Uy, Initial residual = 3.76874e-05, Final residual = 4.53769e-07, No Iterations 1
DICPCG:  Solving for p, Initial residual = 3.28764e-05, Final residual = 9.61715e-07, No Iterations 32
time step continuity errors : sum local = 2.43619e-11, global = 3.70494e-12, cumulative = 6.95617e-10
DICPCG:  Solving for p, Initial residual = 3.56563e-05, Final residual = 9.04415e-07, No Iterations 35
time step continuity errors : sum local = 2.29062e-11, global = -3.1182e-12, cumulative = 6.92499e-10
ExecutionTime = 19.79 s  ClockTime = 21 s

Time = 0.985

Courant Number mean: 0.375436 max: 0.614173
smoothSolver:  Solving for Ux, Initial residual = 2.71406e-06, Final residual = 2.71406e-06, No Iterations 0
smoothSolver:  Solving for Uy, Initial residual = 3.74493e-05, Final residual = 4.50893e-07, No Iterations 1
DICPCG:  Solving for p, Initial residual = 3.26756e-05, Final residual = 9.94579e-07, No Iterations 32
time step continuity errors : sum local = 2.51958e-11, global = 3.69882e-12, cumulative = 6.96198e-10
DICPCG:  Solving for p, Initial residual = 3.54191e-05, Final residual = 9.14237e-07, No Iterations 35
time step continuity errors : sum local = 2.31562e-11, global = -3.10185e-12, cumulative = 6.93096e-10
ExecutionTime = 19.81 s  ClockTime = 21 s

Time = 0.986

Courant Number mean: 0.375436 max: 0.614173
smoothSolver:  Solving for Ux, Initial residual = 2.69665e-06, Final residual = 2.69665e-06, No Iterations 0
smoothSolver:  Solving for Uy, Initial residual = 3.72126e-05, Final residual = 4.48029e-07, No Iterations 1
DICPCG:  Solving for p, Initial residual = 3.25011e-05, Final residual = 9.97197e-07, No Iterations 32
time step continuity errors : sum local = 2.52634e-11, global = 3.67749e-12, cumulative = 6.96773e-10
DICPCG:  Solving for p, Initial residual = 3.52033e-05, Final residual = 9.19109e-07, No Iterations 35
time step continuity errors : sum local = 2.32808e-11, global = -3.08638e-12, cumulative = 6.93687e-10
ExecutionTime = 19.83 s  ClockTime = 21 s

Time = 0.987

Courant Number mean: 0.375436 max: 0.614173
smoothSolver:  Solving for Ux, Initial residual = 2.67936e-06, Final residual = 2.67936e-06, No Iterations 0
smoothSolver:  Solving for Uy, Initial residual = 3.69773e-05, Final residual = 4.4519e-07, No Iterations 1
DICPCG:  Solving for p, Initial residual = 3.23058e-05, Final residual = 9.99912e-07, No Iterations 32
time step continuity errors : sum local = 2.53336e-11, global = 3.65904e-12, cumulative = 6.97346e-10
DICPCG:  Solving for p, Initial residual = 3.49607e-05, Final residual = 9.101e-07, No Iterations 35
time step continuity errors : sum local = 2.30539e-11, global = -3.06434e-12, cumulative = 6.94282e-10
ExecutionTime = 19.85 s  ClockTime = 21 s

Time = 0.988

Courant Number mean: 0.375436 max: 0.614173
smoothSolver:  Solving for Ux, Initial residual = 2.66217e-06, Final residual = 2.66217e-06, No Iterations 0
smoothSolver:  Solving for Uy, Initial residual = 3.67433e-05, Final residual = 4.42366e-07, No Iterations 1
DICPCG:  Solving for p, Initial residual = 3.2091e-05, Final residual = 9.97396e-07, No Iterations 32
time step continuity errors : sum local = 2.52711e-11, global = 3.63895e-12, cumulative = 6.9792e-10
DICPCG:  Solving for p, Initial residual = 3.47367e-05, Final residual = 9.11236e-07, No Iterations 35
time step continuity errors : sum local = 2.30839e-11, global = -3.04774e-12, cumulative = 6.94873e-10
ExecutionTime = 19.87 s  ClockTime = 21 s

Time = 0.989

Courant Number mean: 0.375436 max: 0.614173
smoothSolver:  Solving for Ux, Initial residual = 2.64511e-06, Final residual = 2.64511e-06, No Iterations 0
smoothSolver:  Solving for Uy, Initial residual = 3.65105e-05, Final residual = 4.39563e-07, No Iterations 1
DICPCG:  Solving for p, Initial residual = 3.18699e-05, Final residual = 9.89917e-07, No Iterations 32
time step continuity errors : sum local = 2.5083e-11, global = 3.61261e-12, cumulative = 6.98485e-10
DICPCG:  Solving for p, Initial residual = 3.44848e-05, Final residual = 9.01203e-07, No Iterations 35
time step continuity errors : sum local = 2.28309e-11, global = -3.02541e-12, cumulative = 6.9546e-10
ExecutionTime = 19.89 s  ClockTime = 21 s

Time = 0.99

Courant Number mean: 0.375436 max: 0.614173
smoothSolver:  Solving for Ux, Initial residual = 2.62815e-06, Final residual = 2.62815e-06, No Iterations 0
smoothSolver:  Solving for Uy, Initial residual = 3.62785e-05, Final residual = 4.36773e-07, No Iterations 1
DICPCG:  Solving for p, Initial residual = 3.16468e-05, Final residual = 9.86258e-07, No Iterations 32
time step continuity errors : sum local = 2.49915e-11, global = 3.59065e-12, cumulative = 6.99051e-10
DICPCG:  Solving for p, Initial residual = 3.4246e-05, Final residual = 9.01239e-07, No Iterations 35
time step continuity errors : sum local = 2.28331e-11, global = -3.00894e-12, cumulative = 6.96042e-10
ExecutionTime = 19.91 s  ClockTime = 21 s

Time = 0.991

Courant Number mean: 0.375436 max: 0.614173
smoothSolver:  Solving for Ux, Initial residual = 2.6113e-06, Final residual = 2.6113e-06, No Iterations 0
smoothSolver:  Solving for Uy, Initial residual = 3.60476e-05, Final residual = 4.33999e-07, No Iterations 1
DICPCG:  Solving for p, Initial residual = 3.14091e-05, Final residual = 9.77009e-07, No Iterations 32
time step continuity errors : sum local = 2.47584e-11, global = 3.56228e-12, cumulative = 6.99604e-10
DICPCG:  Solving for p, Initial residual = 3.39907e-05, Final residual = 9.98317e-07, No Iterations 34
time step continuity errors : sum local = 2.52938e-11, global = -3.50738e-12, cumulative = 6.96097e-10
ExecutionTime = 19.93 s  ClockTime = 21 s

Time = 0.992

Courant Number mean: 0.375436 max: 0.614173
smoothSolver:  Solving for Ux, Initial residual = 2.59455e-06, Final residual = 2.59455e-06, No Iterations 0
smoothSolver:  Solving for Uy, Initial residual = 3.58172e-05, Final residual = 4.3121e-07, No Iterations 1
DICPCG:  Solving for p, Initial residual = 3.16887e-05, Final residual = 9.95367e-07, No Iterations 31
time step continuity errors : sum local = 2.52249e-11, global = 3.91282e-12, cumulative = 7.00009e-10
DICPCG:  Solving for p, Initial residual = 3.38185e-05, Final residual = 9.44581e-07, No Iterations 34
time step continuity errors : sum local = 2.39336e-11, global = -3.47056e-12, cumulative = 6.96539e-10
ExecutionTime = 19.95 s  ClockTime = 21 s

Time = 0.993

Courant Number mean: 0.375436 max: 0.614173
smoothSolver:  Solving for Ux, Initial residual = 2.5779e-06, Final residual = 2.5779e-06, No Iterations 0
smoothSolver:  Solving for Uy, Initial residual = 3.55916e-05, Final residual = 4.2853e-07, No Iterations 1
DICPCG:  Solving for p, Initial residual = 3.08548e-05, Final residual = 9.22637e-07, No Iterations 32
time step continuity errors : sum local = 2.33829e-11, global = 3.48317e-12, cumulative = 7.00022e-10
DICPCG:  Solving for p, Initial residual = 3.34911e-05, Final residual = 9.73329e-07, No Iterations 34
time step continuity errors : sum local = 2.46633e-11, global = -3.45855e-12, cumulative = 6.96563e-10
ExecutionTime = 19.97 s  ClockTime = 21 s

Time = 0.994

Courant Number mean: 0.375436 max: 0.614173
smoothSolver:  Solving for Ux, Initial residual = 2.56136e-06, Final residual = 2.56136e-06, No Iterations 0
smoothSolver:  Solving for Uy, Initial residual = 3.53652e-05, Final residual = 4.25806e-07, No Iterations 1
DICPCG:  Solving for p, Initial residual = 3.07299e-05, Final residual = 9.18432e-07, No Iterations 32
time step continuity errors : sum local = 2.32775e-11, global = 3.44786e-12, cumulative = 7.00011e-10
DICPCG:  Solving for p, Initial residual = 3.32494e-05, Final residual = 9.68789e-07, No Iterations 34
time step continuity errors : sum local = 2.45495e-11, global = -3.43731e-12, cumulative = 6.96574e-10
ExecutionTime = 19.98 s  ClockTime = 21 s

Time = 0.995

Courant Number mean: 0.375436 max: 0.614173
smoothSolver:  Solving for Ux, Initial residual = 2.54493e-06, Final residual = 2.54493e-06, No Iterations 0
smoothSolver:  Solving for Uy, Initial residual = 3.51403e-05, Final residual = 4.23107e-07, No Iterations 1
DICPCG:  Solving for p, Initial residual = 3.04819e-05, Final residual = 9.97726e-07, No Iterations 31
time step continuity errors : sum local = 2.52885e-11, global = 3.85516e-12, cumulative = 7.00429e-10
DICPCG:  Solving for p, Initial residual = 3.31349e-05, Final residual = 9.38069e-07, No Iterations 34
time step continuity errors : sum local = 2.37723e-11, global = -3.40273e-12, cumulative = 6.97026e-10
ExecutionTime = 20 s  ClockTime = 21 s

Time = 0.996

Courant Number mean: 0.375436 max: 0.614173
smoothSolver:  Solving for Ux, Initial residual = 2.52861e-06, Final residual = 2.52861e-06, No Iterations 0
smoothSolver:  Solving for Uy, Initial residual = 3.49168e-05, Final residual = 4.20422e-07, No Iterations 1
DICPCG:  Solving for p, Initial residual = 3.02836e-05, Final residual = 9.03133e-07, No Iterations 32
time step continuity errors : sum local = 2.28921e-11, global = 3.40315e-12, cumulative = 7.0043e-10
DICPCG:  Solving for p, Initial residual = 3.27559e-05, Final residual = 9.46588e-07, No Iterations 34
time step continuity errors : sum local = 2.39894e-11, global = -3.39028e-12, cumulative = 6.97039e-10
ExecutionTime = 20.02 s  ClockTime = 21 s

Time = 0.997

Courant Number mean: 0.375436 max: 0.614173
smoothSolver:  Solving for Ux, Initial residual = 2.51241e-06, Final residual = 2.51241e-06, No Iterations 0
smoothSolver:  Solving for Uy, Initial residual = 3.46944e-05, Final residual = 4.17748e-07, No Iterations 1
DICPCG:  Solving for p, Initial residual = 3.00449e-05, Final residual = 9.66495e-07, No Iterations 31
time step continuity errors : sum local = 2.44993e-11, global = 3.79296e-12, cumulative = 7.00832e-10
DICPCG:  Solving for p, Initial residual = 3.26677e-05, Final residual = 9.20688e-07, No Iterations 34
time step continuity errors : sum local = 2.33342e-11, global = -3.35886e-12, cumulative = 6.97473e-10
ExecutionTime = 20.04 s  ClockTime = 21 s

Time = 0.998

Courant Number mean: 0.375436 max: 0.614173
smoothSolver:  Solving for Ux, Initial residual = 2.4963e-06, Final residual = 2.4963e-06, No Iterations 0
smoothSolver:  Solving for Uy, Initial residual = 3.44741e-05, Final residual = 4.15097e-07, No Iterations 1
DICPCG:  Solving for p, Initial residual = 2.98343e-05, Final residual = 9.89998e-07, No Iterations 31
time step continuity errors : sum local = 2.50963e-11, global = 3.77526e-12, cumulative = 7.01249e-10
DICPCG:  Solving for p, Initial residual = 3.24328e-05, Final residual = 9.31402e-07, No Iterations 34
time step continuity errors : sum local = 2.36069e-11, global = -3.33891e-12, cumulative = 6.9791e-10
ExecutionTime = 20.06 s  ClockTime = 21 s

Time = 0.999

Courant Number mean: 0.375436 max: 0.614173
smoothSolver:  Solving for Ux, Initial residual = 2.4803e-06, Final residual = 2.4803e-06, No Iterations 0
smoothSolver:  Solving for Uy, Initial residual = 3.42553e-05, Final residual = 4.12458e-07, No Iterations 1
DICPCG:  Solving for p, Initial residual = 2.96389e-05, Final residual = 9.83748e-07, No Iterations 31
time step continuity errors : sum local = 2.49391e-11, global = 3.74394e-12, cumulative = 7.01654e-10
DICPCG:  Solving for p, Initial residual = 3.21929e-05, Final residual = 9.32574e-07, No Iterations 34
time step continuity errors : sum local = 2.36378e-11, global = -3.31951e-12, cumulative = 6.98334e-10
ExecutionTime = 20.08 s  ClockTime = 21 s

Time = 1

Courant Number mean: 0.375436 max: 0.614173
smoothSolver:  Solving for Ux, Initial residual = 2.46438e-06, Final residual = 2.46438e-06, No Iterations 0
smoothSolver:  Solving for Uy, Initial residual = 3.4038e-05, Final residual = 4.09836e-07, No Iterations 1
DICPCG:  Solving for p, Initial residual = 2.94563e-05, Final residual = 9.94853e-07, No Iterations 31
time step continuity errors : sum local = 2.52219e-11, global = 3.72212e-12, cumulative = 7.02056e-10
DICPCG:  Solving for p, Initial residual = 3.1955e-05, Final residual = 9.31709e-07, No Iterations 34
time step continuity errors : sum local = 2.36171e-11, global = -3.29973e-12, cumulative = 6.98757e-10
ExecutionTime = 20.13 s  ClockTime = 21 s

End

